                                  MODFLOW-2005     
      U.S. GEOLOGICAL SURVEY MODULAR FINITE-DIFFERENCE GROUND-WATER FLOW MODEL
                            VERSION 1.12.00 2/3/2017

 LIST FILE: test_model.list
                         UNIT    2

 OPENING test_model.dis
 FILE TYPE:DIS   UNIT   11   STATUS:OLD    
 FORMAT:FORMATTED              ACCESS:SEQUENTIAL          

 OPENING test_model.bas
 FILE TYPE:BAS6   UNIT   13   STATUS:OLD    
 FORMAT:FORMATTED              ACCESS:SEQUENTIAL          

 OPENING test_model.lpf
 FILE TYPE:LPF   UNIT   15   STATUS:OLD    
 FORMAT:FORMATTED              ACCESS:SEQUENTIAL          

 OPENING test_model.pcg
 FILE TYPE:PCG   UNIT   27   STATUS:OLD    
 FORMAT:FORMATTED              ACCESS:SEQUENTIAL          

 OPENING test_model.ghb
 FILE TYPE:GHB   UNIT   23   STATUS:OLD    
 FORMAT:FORMATTED              ACCESS:SEQUENTIAL          

 OPENING test_model.wel
 FILE TYPE:WEL   UNIT   20   STATUS:OLD    
 FORMAT:FORMATTED              ACCESS:SEQUENTIAL          

 OPENING test_model.oc
 FILE TYPE:OC   UNIT   14   STATUS:OLD    
 FORMAT:FORMATTED              ACCESS:SEQUENTIAL          

 OPENING test_model.cbc
 FILE TYPE:DATA(BINARY)   UNIT   53   STATUS:REPLACE
 FORMAT:UNFORMATTED            ACCESS:STREAM              

 OPENING test_model.hds
 FILE TYPE:DATA(BINARY)   UNIT   51   STATUS:REPLACE
 FORMAT:UNFORMATTED            ACCESS:STREAM              

 OPENING test_model.ddn
 FILE TYPE:DATA(BINARY)   UNIT   52   STATUS:REPLACE
 FORMAT:UNFORMATTED            ACCESS:STREAM              

 BAS -- BASIC PACKAGE, VERSION 7, 5/2/2005 INPUT READ FROM UNIT   13
 
 MODFLOW was compiled using mixed precision
 Precision of REAL variables:           6
 Precision of DOUBLE PRECISION variables:          15

 DISCRETIZATION INPUT DATA READ FROM UNIT   11
 # DIS package for  MODFLOW-2005, generated by Flopy.
    1 LAYERS        10 ROWS        10 COLUMNS
    3 STRESS PERIOD(S) IN SIMULATION
 MODEL TIME UNIT IS DAYS
 MODEL LENGTH UNIT IS METERS
  Confining bed flag for each layer:
   0

                     DELR =   100.000    

                     DELC =   100.000    

 TOP ELEVATION OF LAYER 1 =   10.0000    

   MODEL LAYER BOTTOM EL. =  -50.0000     FOR LAYER   1


 STRESS PERIOD     LENGTH       TIME STEPS     MULTIPLIER FOR DELT    SS FLAG
 ----------------------------------------------------------------------------
        1         1.000000          1                    1.000         SS
        2         100.0000        100                    1.000         TR
        3         100.0000        100                    1.000         TR

 COMBINED STEADY-STATE AND TRANSIENT SIMULATION



 
 # BAS6 package for  MODFLOW-2005, generated by Flopy.                           
 THE FREE FORMAT OPTION HAS BEEN SELECTED



                     BOUNDARY ARRAY FOR LAYER   1
 READING ON UNIT   13 WITH FORMAT: (10I10)             

 AQUIFER HEAD WILL BE SET TO  -999.99     AT ALL NO-FLOW NODES (IBOUND=0).



                       INITIAL HEAD FOR LAYER   1
 READING ON UNIT   13 WITH FORMAT: (10E15.6)           
 # OC package for  MODFLOW-2005, generated by Flopy.

 OUTPUT CONTROL IS SPECIFIED ONLY AT TIME STEPS FOR WHICH OUTPUT IS DESIRED
 COMPACT CELL-BY-CELL BUDGET FILES WILL BE WRITTEN
 AUXILIARY DATA WILL BE SAVED IN CELL-BY-CELL BUDGET FILES
 HEAD PRINT FORMAT CODE IS   0    DRAWDOWN PRINT FORMAT CODE IS   0
 HEADS WILL BE SAVED ON UNIT   51    DRAWDOWNS WILL BE SAVED ON UNIT   52

 LPF -- LAYER-PROPERTY FLOW PACKAGE, VERSION 7, 5/2/2005
         INPUT READ FROM UNIT   15
 # LPF package for  MODFLOW-2005, generated by Flopy.
 CELL-BY-CELL FLOWS WILL BE SAVED ON UNIT   53
 HEAD AT CELLS THAT CONVERT TO DRY= -1.00000E+30
 No named parameters

   LAYER FLAGS:
 LAYER       LAYTYP        LAYAVG         CHANI        LAYVKA        LAYWET
 ---------------------------------------------------------------------------
    1             1             0     1.000E+00             0             0

   INTERPRETATION OF LAYER FLAGS:
                        INTERBLOCK     HORIZONTAL    DATA IN
         LAYER TYPE   TRANSMISSIVITY   ANISOTROPY   ARRAY VKA   WETTABILITY
 LAYER      (LAYTYP)      (LAYAVG)       (CHANI)      (LAYVKA)      (LAYWET)
 ---------------------------------------------------------------------------
    1   CONVERTIBLE      HARMONIC     1.000E+00    VERTICAL K  NON-WETTABLE

 WETTING CAPABILITY IS NOT ACTIVE IN ANY LAYER

    HYD. COND. ALONG ROWS =   1.00000     FOR LAYER   1

      VERTICAL HYD. COND. =   1.00000     FOR LAYER   1

         SPECIFIC STORAGE =  1.000000E-04 FOR LAYER   1

           SPECIFIC YIELD =  0.100000     FOR LAYER   1

 WEL -- WELL PACKAGE, VERSION 7, 5/2/2005 INPUT READ FROM UNIT   20
 # WEL package for  MODFLOW-2005, generated by Flopy.
 No named parameters
 MAXIMUM OF      1 ACTIVE WELLS AT ONE TIME


     0 Well parameters

 GHB -- GENERAL-HEAD BOUNDARY PACKAGE, VERSION 7, 5/2/2005
         INPUT READ FROM UNIT   23
 # GHB package for  MODFLOW-2005, generated by Flopy.
 No named parameters
 MAXIMUM OF     20 ACTIVE GHB CELLS AT ONE TIME


     0 GHB parameters

 PCG -- CONJUGATE-GRADIENT SOLUTION PACKAGE, VERSION 7, 5/2/2005
 # PCG package for  MODFLOW-2005, generated by Flopy.
 MAXIMUM OF     50 CALLS OF SOLUTION ROUTINE
 MAXIMUM OF     30 INTERNAL ITERATIONS PER CALL TO SOLUTION ROUTINE
 MATRIX PRECONDITIONING TYPE :    1



                                    SOLUTION BY THE CONJUGATE-GRADIENT METHOD
                                   -------------------------------------------
                    MAXIMUM NUMBER OF CALLS TO PCG ROUTINE =       50
                        MAXIMUM ITERATIONS PER CALL TO PCG =       30
                               MATRIX PRECONDITIONING TYPE =        1
        RELAXATION FACTOR (ONLY USED WITH PRECOND. TYPE 1) =    0.10000E+01
 PARAMETER OF POLYNOMIAL PRECOND. = 2 (2) OR IS CALCULATED :        0
                         HEAD CHANGE CRITERION FOR CLOSURE =    0.10000E-04
                     RESIDUAL CHANGE CRITERION FOR CLOSURE =    0.10000E-04
            PCG HEAD AND RESIDUAL CHANGE PRINTOUT INTERVAL =      999
     PRINTING FROM SOLVER IS LIMITED(1) OR SUPPRESSED (>1) =        3
                            STEADY-STATE DAMPING PARAMETER =    0.10000E+01
                               TRANSIENT DAMPING PARAMETER =    0.10000E+01
1
                            STRESS PERIOD NO.    1, LENGTH =   1.000000    
                            -----------------------------------------------

                              NUMBER OF TIME STEPS =     1

                               MULTIPLIER FOR DELT =     1.000

                            INITIAL TIME STEP SIZE =   1.000000    

 WELL NO.  LAYER   ROW   COL   STRESS RATE         
 --------------------------------------------------
      1      1      5      5       0.000    

      1 WELL 

 BOUND. NO. LAYER   ROW   COL     STAGE      CONDUCTANCE         
 ----------------------------------------------------------------
      1      1      1      1       10.00           6000.    
      2      1      1     10       10.00           6000.    
      3      1      2      1       10.00           6000.    
      4      1      2     10       10.00           6000.    
      5      1      3      1       10.00           6000.    
      6      1      3     10       10.00           6000.    
      7      1      4      1       10.00           6000.    
      8      1      4     10       10.00           6000.    
      9      1      5      1       10.00           6000.    
     10      1      5     10       10.00           6000.    
     11      1      6      1       10.00           6000.    
     12      1      6     10       10.00           6000.    
     13      1      7      1       10.00           6000.    
     14      1      7     10       10.00           6000.    
     15      1      8      1       10.00           6000.    
     16      1      8     10       10.00           6000.    
     17      1      9      1       10.00           6000.    
     18      1      9     10       10.00           6000.    
     19      1     10      1       10.00           6000.    
     20      1     10     10       10.00           6000.    

     20 GHB CELLS
 
 SOLVING FOR HEAD 

 OUTPUT CONTROL FOR STRESS PERIOD    1   TIME STEP    1
    SAVE HEAD FOR ALL LAYERS
    SAVE DRAWDOWN FOR ALL LAYERS
    SAVE BUDGET
    PRINT HEAD FOR ALL LAYERS
    PRINT BUDGET
 UBDSV2 SAVING "   CONSTANT HEAD" ON UNIT  53 AT TIME STEP  1, STRESS PERIOD   1
 UBDSV1 SAVING "FLOW RIGHT FACE " ON UNIT  53 AT TIME STEP  1, STRESS PERIOD   1
 UBDSV1 SAVING "FLOW FRONT FACE " ON UNIT  53 AT TIME STEP  1, STRESS PERIOD   1
1
              HEAD IN LAYER   1 AT END OF TIME STEP   1 IN STRESS PERIOD    1
  ---------------------------------------------------------------------------

            1           2           3           4           5           6           7           8           9          10
 ........................................................................................................................
   1    10.00       10.00       10.00       10.00       10.00       10.00       10.00       10.00       10.00       10.00    
   2    10.00       10.00       10.00       10.00       10.00       10.00       10.00       10.00       10.00       10.00    
   3    10.00       10.00       10.00       10.00       10.00       10.00       10.00       10.00       10.00       10.00    
   4    10.00       10.00       10.00       10.00       10.00       10.00       10.00       10.00       10.00       10.00    
   5    10.00       10.00       10.00       10.00       10.00       10.00       10.00       10.00       10.00       10.00    
   6    10.00       10.00       10.00       10.00       10.00       10.00       10.00       10.00       10.00       10.00    
   7    10.00       10.00       10.00       10.00       10.00       10.00       10.00       10.00       10.00       10.00    
   8    10.00       10.00       10.00       10.00       10.00       10.00       10.00       10.00       10.00       10.00    
   9    10.00       10.00       10.00       10.00       10.00       10.00       10.00       10.00       10.00       10.00    
  10    10.00       10.00       10.00       10.00       10.00       10.00       10.00       10.00       10.00       10.00    

 HEAD WILL BE SAVED ON UNIT   51 AT END OF TIME STEP    1, STRESS PERIOD    1

 DRAWDOWN WILL BE SAVED ON UNIT   52 AT END OF TIME STEP    1, STRESS PERIOD    1
1
  VOLUMETRIC BUDGET FOR ENTIRE MODEL AT END OF TIME STEP    1, STRESS PERIOD   1
  ------------------------------------------------------------------------------

     CUMULATIVE VOLUMES      L**3       RATES FOR THIS TIME STEP      L**3/T
     ------------------                 ------------------------

           IN:                                      IN:
           ---                                      ---
             STORAGE =           0.0000               STORAGE =           0.0000
       CONSTANT HEAD =           0.0000         CONSTANT HEAD =           0.0000
               WELLS =           0.0000                 WELLS =           0.0000
     HEAD DEP BOUNDS =           0.0000       HEAD DEP BOUNDS =           0.0000

            TOTAL IN =           0.0000              TOTAL IN =           0.0000

          OUT:                                     OUT:
          ----                                     ----
             STORAGE =           0.0000               STORAGE =           0.0000
       CONSTANT HEAD =           0.0000         CONSTANT HEAD =           0.0000
               WELLS =           0.0000                 WELLS =           0.0000
     HEAD DEP BOUNDS =           0.0000       HEAD DEP BOUNDS =           0.0000

           TOTAL OUT =           0.0000             TOTAL OUT =           0.0000

            IN - OUT =           0.0000              IN - OUT =           0.0000

 PERCENT DISCREPANCY =           0.00     PERCENT DISCREPANCY =           0.00






         TIME SUMMARY AT END OF TIME STEP    1 IN STRESS PERIOD    1
                    SECONDS     MINUTES      HOURS       DAYS        YEARS
                    -----------------------------------------------------------
   TIME STEP LENGTH  86400.      1440.0      24.000      1.0000     2.73785E-03
 STRESS PERIOD TIME  86400.      1440.0      24.000      1.0000     2.73785E-03
         TOTAL TIME  86400.      1440.0      24.000      1.0000     2.73785E-03
1
1
                            STRESS PERIOD NO.    2, LENGTH =   100.0000    
                            -----------------------------------------------

                              NUMBER OF TIME STEPS =   100

                               MULTIPLIER FOR DELT =     1.000

                            INITIAL TIME STEP SIZE =   1.000000    

 WELL NO.  LAYER   ROW   COL   STRESS RATE         
 --------------------------------------------------
      1      1      5      5       0.000    

      1 WELL 

 BOUND. NO. LAYER   ROW   COL     STAGE      CONDUCTANCE         
 ----------------------------------------------------------------
      1      1      1      1       10.00           6000.    
      2      1      1     10       0.000           5000.    
      3      1      2      1       10.00           6000.    
      4      1      2     10       0.000           5000.    
      5      1      3      1       10.00           6000.    
      6      1      3     10       0.000           5000.    
      7      1      4      1       10.00           6000.    
      8      1      4     10       0.000           5000.    
      9      1      5      1       10.00           6000.    
     10      1      5     10       0.000           5000.    
     11      1      6      1       10.00           6000.    
     12      1      6     10       0.000           5000.    
     13      1      7      1       10.00           6000.    
     14      1      7     10       0.000           5000.    
     15      1      8      1       10.00           6000.    
     16      1      8     10       0.000           5000.    
     17      1      9      1       10.00           6000.    
     18      1      9     10       0.000           5000.    
     19      1     10      1       10.00           6000.    
     20      1     10     10       0.000           5000.    

     20 GHB CELLS
 
 SOLVING FOR HEAD 

 OUTPUT CONTROL FOR STRESS PERIOD    2   TIME STEP    1
    SAVE HEAD FOR ALL LAYERS
    SAVE DRAWDOWN FOR ALL LAYERS
    SAVE BUDGET
    PRINT HEAD FOR ALL LAYERS
    PRINT BUDGET
 UBDSV1 SAVING "         STORAGE" ON UNIT  53 AT TIME STEP  1, STRESS PERIOD   2
 UBDSV2 SAVING "   CONSTANT HEAD" ON UNIT  53 AT TIME STEP  1, STRESS PERIOD   2
 UBDSV1 SAVING "FLOW RIGHT FACE " ON UNIT  53 AT TIME STEP  1, STRESS PERIOD   2
 UBDSV1 SAVING "FLOW FRONT FACE " ON UNIT  53 AT TIME STEP  1, STRESS PERIOD   2
1
              HEAD IN LAYER   1 AT END OF TIME STEP   1 IN STRESS PERIOD    2
  ---------------------------------------------------------------------------

            1           2           3           4           5           6           7           8           9          10
 ........................................................................................................................
   1    10.00       10.00       10.00       10.00       10.00      10.000       9.999       9.978       9.589       1.739    
   2    10.00       10.00       10.00       10.00       10.00      10.000       9.999       9.978       9.589       1.739    
   3    10.00       10.00       10.00       10.00       10.00      10.000       9.999       9.978       9.589       1.739    
   4    10.00       10.00       10.00       10.00       10.00      10.000       9.999       9.978       9.589       1.739    
   5    10.00       10.00       10.00       10.00       10.00      10.000       9.999       9.978       9.589       1.739    
   6    10.00       10.00       10.00       10.00       10.00      10.000       9.999       9.978       9.589       1.739    
   7    10.00       10.00       10.00       10.00       10.00      10.000       9.999       9.978       9.589       1.739    
   8    10.00       10.00       10.00       10.00       10.00      10.000       9.999       9.978       9.589       1.739    
   9    10.00       10.00       10.00       10.00       10.00      10.000       9.999       9.978       9.589       1.739    
  10    10.00       10.00       10.00       10.00       10.00      10.000       9.999       9.978       9.589       1.739    

 HEAD WILL BE SAVED ON UNIT   51 AT END OF TIME STEP    1, STRESS PERIOD    2

 DRAWDOWN WILL BE SAVED ON UNIT   52 AT END OF TIME STEP    1, STRESS PERIOD    2
1
  VOLUMETRIC BUDGET FOR ENTIRE MODEL AT END OF TIME STEP    1, STRESS PERIOD   2
  ------------------------------------------------------------------------------

     CUMULATIVE VOLUMES      L**3       RATES FOR THIS TIME STEP      L**3/T
     ------------------                 ------------------------

           IN:                                      IN:
           ---                                      ---
             STORAGE =       86956.2969               STORAGE =       86956.2969
       CONSTANT HEAD =           0.0000         CONSTANT HEAD =           0.0000
               WELLS =           0.0000                 WELLS =           0.0000
     HEAD DEP BOUNDS =       2.6943E-07       HEAD DEP BOUNDS =       2.6943E-07

            TOTAL IN =       86956.2969              TOTAL IN =       86956.2969

          OUT:                                     OUT:
          ----                                     ----
             STORAGE =           0.0000               STORAGE =           0.0000
       CONSTANT HEAD =           0.0000         CONSTANT HEAD =           0.0000
               WELLS =           0.0000                 WELLS =           0.0000
     HEAD DEP BOUNDS =       86956.2969       HEAD DEP BOUNDS =       86956.2969

           TOTAL OUT =       86956.2969             TOTAL OUT =       86956.2969

            IN - OUT =           0.0000              IN - OUT =           0.0000

 PERCENT DISCREPANCY =           0.00     PERCENT DISCREPANCY =           0.00






         TIME SUMMARY AT END OF TIME STEP    1 IN STRESS PERIOD    2
                    SECONDS     MINUTES      HOURS       DAYS        YEARS
                    -----------------------------------------------------------
   TIME STEP LENGTH  86400.      1440.0      24.000      1.0000     2.73785E-03
 STRESS PERIOD TIME  86400.      1440.0      24.000      1.0000     2.73785E-03
         TOTAL TIME 1.72800E+05  2880.0      48.000      2.0000     5.47570E-03
1
 
 SOLVING FOR HEAD 

 OUTPUT CONTROL FOR STRESS PERIOD    2   TIME STEP    2
    SAVE HEAD FOR ALL LAYERS
    SAVE DRAWDOWN FOR ALL LAYERS
    SAVE BUDGET
    PRINT HEAD FOR ALL LAYERS
    PRINT BUDGET
 UBDSV1 SAVING "         STORAGE" ON UNIT  53 AT TIME STEP  2, STRESS PERIOD   2
 UBDSV2 SAVING "   CONSTANT HEAD" ON UNIT  53 AT TIME STEP  2, STRESS PERIOD   2
 UBDSV1 SAVING "FLOW RIGHT FACE " ON UNIT  53 AT TIME STEP  2, STRESS PERIOD   2
 UBDSV1 SAVING "FLOW FRONT FACE " ON UNIT  53 AT TIME STEP  2, STRESS PERIOD   2
1
              HEAD IN LAYER   1 AT END OF TIME STEP   2 IN STRESS PERIOD    2
  ---------------------------------------------------------------------------

            1           2           3           4           5           6           7           8           9          10
 ........................................................................................................................
   1    10.00       10.00       10.00       10.00       10.00      10.000       9.995       9.935       9.157      0.3695    
   2    10.00       10.00       10.00       10.00       10.00      10.000       9.995       9.935       9.157      0.3695    
   3    10.00       10.00       10.00       10.00       10.00      10.000       9.995       9.935       9.157      0.3695    
   4    10.00       10.00       10.00       10.00       10.00      10.000       9.995       9.935       9.157      0.3695    
   5    10.00       10.00       10.00       10.00       10.00      10.000       9.995       9.935       9.157      0.3695    
   6    10.00       10.00       10.00       10.00       10.00      10.000       9.995       9.935       9.157      0.3695    
   7    10.00       10.00       10.00       10.00       10.00      10.000       9.995       9.935       9.157      0.3695    
   8    10.00       10.00       10.00       10.00       10.00      10.000       9.995       9.935       9.157      0.3695    
   9    10.00       10.00       10.00       10.00       10.00      10.000       9.995       9.935       9.157      0.3695    
  10    10.00       10.00       10.00       10.00       10.00      10.000       9.995       9.935       9.157      0.3695    

 HEAD WILL BE SAVED ON UNIT   51 AT END OF TIME STEP    2, STRESS PERIOD    2

 DRAWDOWN WILL BE SAVED ON UNIT   52 AT END OF TIME STEP    2, STRESS PERIOD    2
1
  VOLUMETRIC BUDGET FOR ENTIRE MODEL AT END OF TIME STEP    2, STRESS PERIOD   2
  ------------------------------------------------------------------------------

     CUMULATIVE VOLUMES      L**3       RATES FOR THIS TIME STEP      L**3/T
     ------------------                 ------------------------

           IN:                                      IN:
           ---                                      ---
             STORAGE =      105433.3438               STORAGE =       18477.0488
       CONSTANT HEAD =           0.0000         CONSTANT HEAD =           0.0000
               WELLS =           0.0000                 WELLS =           0.0000
     HEAD DEP BOUNDS =       1.8210E-06       HEAD DEP BOUNDS =       1.5515E-06

            TOTAL IN =      105433.3438              TOTAL IN =       18477.0488

          OUT:                                     OUT:
          ----                                     ----
             STORAGE =           0.0000               STORAGE =           0.0000
       CONSTANT HEAD =           0.0000         CONSTANT HEAD =           0.0000
               WELLS =           0.0000                 WELLS =           0.0000
     HEAD DEP BOUNDS =      105433.3359       HEAD DEP BOUNDS =       18477.0371

           TOTAL OUT =      105433.3359             TOTAL OUT =       18477.0371

            IN - OUT =       7.8125E-03              IN - OUT =       1.1719E-02

 PERCENT DISCREPANCY =           0.00     PERCENT DISCREPANCY =           0.00






         TIME SUMMARY AT END OF TIME STEP    2 IN STRESS PERIOD    2
                    SECONDS     MINUTES      HOURS       DAYS        YEARS
                    -----------------------------------------------------------
   TIME STEP LENGTH  86400.      1440.0      24.000      1.0000     2.73785E-03
 STRESS PERIOD TIME 1.72800E+05  2880.0      48.000      2.0000     5.47570E-03
         TOTAL TIME 2.59200E+05  4320.0      72.000      3.0000     8.21355E-03
1
 
 SOLVING FOR HEAD 

 OUTPUT CONTROL FOR STRESS PERIOD    2   TIME STEP    3
    SAVE HEAD FOR ALL LAYERS
    SAVE DRAWDOWN FOR ALL LAYERS
    SAVE BUDGET
    PRINT HEAD FOR ALL LAYERS
    PRINT BUDGET
 UBDSV1 SAVING "         STORAGE" ON UNIT  53 AT TIME STEP  3, STRESS PERIOD   2
 UBDSV2 SAVING "   CONSTANT HEAD" ON UNIT  53 AT TIME STEP  3, STRESS PERIOD   2
 UBDSV1 SAVING "FLOW RIGHT FACE " ON UNIT  53 AT TIME STEP  3, STRESS PERIOD   2
 UBDSV1 SAVING "FLOW FRONT FACE " ON UNIT  53 AT TIME STEP  3, STRESS PERIOD   2
1
              HEAD IN LAYER   1 AT END OF TIME STEP   3 IN STRESS PERIOD    2
  ---------------------------------------------------------------------------

            1           2           3           4           5           6           7           8           9          10
 ........................................................................................................................
   1    10.00       10.00       10.00       10.00      10.000       9.999       9.989       9.876       8.757      0.1393    
   2    10.00       10.00       10.00       10.00      10.000       9.999       9.989       9.876       8.757      0.1393    
   3    10.00       10.00       10.00       10.00      10.000       9.999       9.989       9.876       8.757      0.1393    
   4    10.00       10.00       10.00       10.00      10.000       9.999       9.989       9.876       8.757      0.1393    
   5    10.00       10.00       10.00       10.00      10.000       9.999       9.989       9.876       8.757      0.1393    
   6    10.00       10.00       10.00       10.00      10.000       9.999       9.989       9.876       8.757      0.1393    
   7    10.00       10.00       10.00       10.00      10.000       9.999       9.989       9.876       8.757      0.1393    
   8    10.00       10.00       10.00       10.00      10.000       9.999       9.989       9.876       8.757      0.1393    
   9    10.00       10.00       10.00       10.00      10.000       9.999       9.989       9.876       8.757      0.1393    
  10    10.00       10.00       10.00       10.00      10.000       9.999       9.989       9.876       8.757      0.1393    

 HEAD WILL BE SAVED ON UNIT   51 AT END OF TIME STEP    3, STRESS PERIOD    2

 DRAWDOWN WILL BE SAVED ON UNIT   52 AT END OF TIME STEP    3, STRESS PERIOD    2
1
  VOLUMETRIC BUDGET FOR ENTIRE MODEL AT END OF TIME STEP    3, STRESS PERIOD   2
  ------------------------------------------------------------------------------

     CUMULATIVE VOLUMES      L**3       RATES FOR THIS TIME STEP      L**3/T
     ------------------                 ------------------------

           IN:                                      IN:
           ---                                      ---
             STORAGE =      112398.4375               STORAGE =        6965.0962
       CONSTANT HEAD =           0.0000         CONSTANT HEAD =           0.0000
               WELLS =           0.0000                 WELLS =           0.0000
     HEAD DEP BOUNDS =       8.1549E-06       HEAD DEP BOUNDS =       6.3339E-06

            TOTAL IN =      112398.4375              TOTAL IN =        6965.0962

          OUT:                                     OUT:
          ----                                     ----
             STORAGE =           0.0000               STORAGE =           0.0000
       CONSTANT HEAD =           0.0000         CONSTANT HEAD =           0.0000
               WELLS =           0.0000                 WELLS =           0.0000
     HEAD DEP BOUNDS =      112398.4297       HEAD DEP BOUNDS =        6965.0952

           TOTAL OUT =      112398.4297             TOTAL OUT =        6965.0952

            IN - OUT =       7.8125E-03              IN - OUT =       9.7656E-04

 PERCENT DISCREPANCY =           0.00     PERCENT DISCREPANCY =           0.00






         TIME SUMMARY AT END OF TIME STEP    3 IN STRESS PERIOD    2
                    SECONDS     MINUTES      HOURS       DAYS        YEARS
                    -----------------------------------------------------------
   TIME STEP LENGTH  86400.      1440.0      24.000      1.0000     2.73785E-03
 STRESS PERIOD TIME 2.59200E+05  4320.0      72.000      3.0000     8.21355E-03
         TOTAL TIME 3.45600E+05  5760.0      96.000      4.0000     1.09514E-02
1
 
 SOLVING FOR HEAD 

 OUTPUT CONTROL FOR STRESS PERIOD    2   TIME STEP    4
    SAVE HEAD FOR ALL LAYERS
    SAVE DRAWDOWN FOR ALL LAYERS
    SAVE BUDGET
    PRINT HEAD FOR ALL LAYERS
    PRINT BUDGET
 UBDSV1 SAVING "         STORAGE" ON UNIT  53 AT TIME STEP  4, STRESS PERIOD   2
 UBDSV2 SAVING "   CONSTANT HEAD" ON UNIT  53 AT TIME STEP  4, STRESS PERIOD   2
 UBDSV1 SAVING "FLOW RIGHT FACE " ON UNIT  53 AT TIME STEP  4, STRESS PERIOD   2
 UBDSV1 SAVING "FLOW FRONT FACE " ON UNIT  53 AT TIME STEP  4, STRESS PERIOD   2
1
              HEAD IN LAYER   1 AT END OF TIME STEP   4 IN STRESS PERIOD    2
  ---------------------------------------------------------------------------

            1           2           3           4           5           6           7           8           9          10
 ........................................................................................................................
   1    10.00       10.00       10.00       10.00      10.000       9.998       9.980       9.803       8.393      9.7773E-02
   2    10.00       10.00       10.00       10.00      10.000       9.998       9.980       9.803       8.393      9.7773E-02
   3    10.00       10.00       10.00       10.00      10.000       9.998       9.980       9.803       8.393      9.7773E-02
   4    10.00       10.00       10.00       10.00      10.000       9.998       9.980       9.803       8.393      9.7773E-02
   5    10.00       10.00       10.00       10.00      10.000       9.998       9.980       9.803       8.393      9.7773E-02
   6    10.00       10.00       10.00       10.00      10.000       9.998       9.980       9.803       8.393      9.7773E-02
   7    10.00       10.00       10.00       10.00      10.000       9.998       9.980       9.803       8.393      9.7773E-02
   8    10.00       10.00       10.00       10.00      10.000       9.998       9.980       9.803       8.393      9.7773E-02
   9    10.00       10.00       10.00       10.00      10.000       9.998       9.980       9.803       8.393      9.7773E-02
  10    10.00       10.00       10.00       10.00      10.000       9.998       9.980       9.803       8.393      9.7773E-02

 HEAD WILL BE SAVED ON UNIT   51 AT END OF TIME STEP    4, STRESS PERIOD    2

 DRAWDOWN WILL BE SAVED ON UNIT   52 AT END OF TIME STEP    4, STRESS PERIOD    2
1
  VOLUMETRIC BUDGET FOR ENTIRE MODEL AT END OF TIME STEP    4, STRESS PERIOD   2
  ------------------------------------------------------------------------------

     CUMULATIVE VOLUMES      L**3       RATES FOR THIS TIME STEP      L**3/T
     ------------------                 ------------------------

           IN:                                      IN:
           ---                                      ---
             STORAGE =      117287.1016               STORAGE =        4888.6646
       CONSTANT HEAD =           0.0000         CONSTANT HEAD =           0.0000
               WELLS =           0.0000                 WELLS =           0.0000
     HEAD DEP BOUNDS =       2.6918E-05       HEAD DEP BOUNDS =       1.8763E-05

            TOTAL IN =      117287.1016              TOTAL IN =        4888.6646

          OUT:                                     OUT:
          ----                                     ----
             STORAGE =           0.0000               STORAGE =           0.0000
       CONSTANT HEAD =           0.0000         CONSTANT HEAD =           0.0000
               WELLS =           0.0000                 WELLS =           0.0000
     HEAD DEP BOUNDS =      117287.1016       HEAD DEP BOUNDS =        4888.6699

           TOTAL OUT =      117287.1016             TOTAL OUT =        4888.6699

            IN - OUT =           0.0000              IN - OUT =      -5.3711E-03

 PERCENT DISCREPANCY =           0.00     PERCENT DISCREPANCY =          -0.00






         TIME SUMMARY AT END OF TIME STEP    4 IN STRESS PERIOD    2
                    SECONDS     MINUTES      HOURS       DAYS        YEARS
                    -----------------------------------------------------------
   TIME STEP LENGTH  86400.      1440.0      24.000      1.0000     2.73785E-03
 STRESS PERIOD TIME 3.45600E+05  5760.0      96.000      4.0000     1.09514E-02
         TOTAL TIME 4.32000E+05  7200.0      120.00      5.0000     1.36893E-02
1
 
 SOLVING FOR HEAD 

 OUTPUT CONTROL FOR STRESS PERIOD    2   TIME STEP    5
    SAVE HEAD FOR ALL LAYERS
    SAVE DRAWDOWN FOR ALL LAYERS
    SAVE BUDGET
    PRINT HEAD FOR ALL LAYERS
    PRINT BUDGET
 UBDSV1 SAVING "         STORAGE" ON UNIT  53 AT TIME STEP  5, STRESS PERIOD   2
 UBDSV2 SAVING "   CONSTANT HEAD" ON UNIT  53 AT TIME STEP  5, STRESS PERIOD   2
 UBDSV1 SAVING "FLOW RIGHT FACE " ON UNIT  53 AT TIME STEP  5, STRESS PERIOD   2
 UBDSV1 SAVING "FLOW FRONT FACE " ON UNIT  53 AT TIME STEP  5, STRESS PERIOD   2
1
              HEAD IN LAYER   1 AT END OF TIME STEP   5 IN STRESS PERIOD    2
  ---------------------------------------------------------------------------

            1           2           3           4           5           6           7           8           9          10
 ........................................................................................................................
   1    10.00       10.00       10.00       10.00      10.000       9.997       9.967       9.720       8.062      8.7769E-02
   2    10.00       10.00       10.00       10.00      10.000       9.997       9.967       9.720       8.062      8.7769E-02
   3    10.00       10.00       10.00       10.00      10.000       9.997       9.967       9.720       8.062      8.7769E-02
   4    10.00       10.00       10.00       10.00      10.000       9.997       9.967       9.720       8.062      8.7769E-02
   5    10.00       10.00       10.00       10.00      10.000       9.997       9.967       9.720       8.062      8.7769E-02
   6    10.00       10.00       10.00       10.00      10.000       9.997       9.967       9.720       8.062      8.7769E-02
   7    10.00       10.00       10.00       10.00      10.000       9.997       9.967       9.720       8.062      8.7769E-02
   8    10.00       10.00       10.00       10.00      10.000       9.997       9.967       9.720       8.062      8.7769E-02
   9    10.00       10.00       10.00       10.00      10.000       9.997       9.967       9.720       8.062      8.7769E-02
  10    10.00       10.00       10.00       10.00      10.000       9.997       9.967       9.720       8.062      8.7769E-02

 HEAD WILL BE SAVED ON UNIT   51 AT END OF TIME STEP    5, STRESS PERIOD    2

 DRAWDOWN WILL BE SAVED ON UNIT   52 AT END OF TIME STEP    5, STRESS PERIOD    2
1
  VOLUMETRIC BUDGET FOR ENTIRE MODEL AT END OF TIME STEP    5, STRESS PERIOD   2
  ------------------------------------------------------------------------------

     CUMULATIVE VOLUMES      L**3       RATES FOR THIS TIME STEP      L**3/T
     ------------------                 ------------------------

           IN:                                      IN:
           ---                                      ---
             STORAGE =      121675.5703               STORAGE =        4388.4653
       CONSTANT HEAD =           0.0000         CONSTANT HEAD =           0.0000
               WELLS =           0.0000                 WELLS =           0.0000
     HEAD DEP BOUNDS =       9.3279E-05       HEAD DEP BOUNDS =       6.6360E-05

            TOTAL IN =      121675.5703              TOTAL IN =        4388.4653

          OUT:                                     OUT:
          ----                                     ----
             STORAGE =           0.0000               STORAGE =           0.0000
       CONSTANT HEAD =           0.0000         CONSTANT HEAD =           0.0000
               WELLS =           0.0000                 WELLS =           0.0000
     HEAD DEP BOUNDS =      121675.5547       HEAD DEP BOUNDS =        4388.4512

           TOTAL OUT =      121675.5547             TOTAL OUT =        4388.4512

            IN - OUT =       1.5625E-02              IN - OUT =       1.4160E-02

 PERCENT DISCREPANCY =           0.00     PERCENT DISCREPANCY =           0.00






         TIME SUMMARY AT END OF TIME STEP    5 IN STRESS PERIOD    2
                    SECONDS     MINUTES      HOURS       DAYS        YEARS
                    -----------------------------------------------------------
   TIME STEP LENGTH  86400.      1440.0      24.000      1.0000     2.73785E-03
 STRESS PERIOD TIME 4.32000E+05  7200.0      120.00      5.0000     1.36893E-02
         TOTAL TIME 5.18400E+05  8640.0      144.00      6.0000     1.64271E-02
1
 
 SOLVING FOR HEAD 

 OUTPUT CONTROL FOR STRESS PERIOD    2   TIME STEP    6
    SAVE HEAD FOR ALL LAYERS
    SAVE DRAWDOWN FOR ALL LAYERS
    SAVE BUDGET
    PRINT HEAD FOR ALL LAYERS
    PRINT BUDGET
 UBDSV1 SAVING "         STORAGE" ON UNIT  53 AT TIME STEP  6, STRESS PERIOD   2
 UBDSV2 SAVING "   CONSTANT HEAD" ON UNIT  53 AT TIME STEP  6, STRESS PERIOD   2
 UBDSV1 SAVING "FLOW RIGHT FACE " ON UNIT  53 AT TIME STEP  6, STRESS PERIOD   2
 UBDSV1 SAVING "FLOW FRONT FACE " ON UNIT  53 AT TIME STEP  6, STRESS PERIOD   2
1
              HEAD IN LAYER   1 AT END OF TIME STEP   6 IN STRESS PERIOD    2
  ---------------------------------------------------------------------------

            1           2           3           4           5           6           7           8           9          10
 ........................................................................................................................
   1    10.00       10.00       10.00      10.000       9.999       9.994       9.950       9.630       7.760      8.3265E-02
   2    10.00       10.00       10.00      10.000       9.999       9.994       9.950       9.630       7.760      8.3265E-02
   3    10.00       10.00       10.00      10.000       9.999       9.994       9.950       9.630       7.760      8.3265E-02
   4    10.00       10.00       10.00      10.000       9.999       9.994       9.950       9.630       7.760      8.3265E-02
   5    10.00       10.00       10.00      10.000       9.999       9.994       9.950       9.630       7.760      8.3265E-02
   6    10.00       10.00       10.00      10.000       9.999       9.994       9.950       9.630       7.760      8.3265E-02
   7    10.00       10.00       10.00      10.000       9.999       9.994       9.950       9.630       7.760      8.3265E-02
   8    10.00       10.00       10.00      10.000       9.999       9.994       9.950       9.630       7.760      8.3265E-02
   9    10.00       10.00       10.00      10.000       9.999       9.994       9.950       9.630       7.760      8.3265E-02
  10    10.00       10.00       10.00      10.000       9.999       9.994       9.950       9.630       7.760      8.3265E-02

 HEAD WILL BE SAVED ON UNIT   51 AT END OF TIME STEP    6, STRESS PERIOD    2

 DRAWDOWN WILL BE SAVED ON UNIT   52 AT END OF TIME STEP    6, STRESS PERIOD    2
1
  VOLUMETRIC BUDGET FOR ENTIRE MODEL AT END OF TIME STEP    6, STRESS PERIOD   2
  ------------------------------------------------------------------------------

     CUMULATIVE VOLUMES      L**3       RATES FOR THIS TIME STEP      L**3/T
     ------------------                 ------------------------

           IN:                                      IN:
           ---                                      ---
             STORAGE =      125838.7969               STORAGE =        4163.2246
       CONSTANT HEAD =           0.0000         CONSTANT HEAD =           0.0000
               WELLS =           0.0000                 WELLS =           0.0000
     HEAD DEP BOUNDS =       2.5004E-04       HEAD DEP BOUNDS =       1.5676E-04

            TOTAL IN =      125838.7969              TOTAL IN =        4163.2246

          OUT:                                     OUT:
          ----                                     ----
             STORAGE =           0.0000               STORAGE =           0.0000
       CONSTANT HEAD =           0.0000         CONSTANT HEAD =           0.0000
               WELLS =           0.0000                 WELLS =           0.0000
     HEAD DEP BOUNDS =      125838.7812       HEAD DEP BOUNDS =        4163.2285

           TOTAL OUT =      125838.7812             TOTAL OUT =        4163.2285

            IN - OUT =       1.5625E-02              IN - OUT =      -3.9062E-03

 PERCENT DISCREPANCY =           0.00     PERCENT DISCREPANCY =          -0.00






         TIME SUMMARY AT END OF TIME STEP    6 IN STRESS PERIOD    2
                    SECONDS     MINUTES      HOURS       DAYS        YEARS
                    -----------------------------------------------------------
   TIME STEP LENGTH  86400.      1440.0      24.000      1.0000     2.73785E-03
 STRESS PERIOD TIME 5.18400E+05  8640.0      144.00      6.0000     1.64271E-02
         TOTAL TIME 6.04800E+05  10080.      168.00      7.0000     1.91650E-02
1
 
 SOLVING FOR HEAD 

 OUTPUT CONTROL FOR STRESS PERIOD    2   TIME STEP    7
    SAVE HEAD FOR ALL LAYERS
    SAVE DRAWDOWN FOR ALL LAYERS
    SAVE BUDGET
    PRINT HEAD FOR ALL LAYERS
    PRINT BUDGET
 UBDSV1 SAVING "         STORAGE" ON UNIT  53 AT TIME STEP  7, STRESS PERIOD   2
 UBDSV2 SAVING "   CONSTANT HEAD" ON UNIT  53 AT TIME STEP  7, STRESS PERIOD   2
 UBDSV1 SAVING "FLOW RIGHT FACE " ON UNIT  53 AT TIME STEP  7, STRESS PERIOD   2
 UBDSV1 SAVING "FLOW FRONT FACE " ON UNIT  53 AT TIME STEP  7, STRESS PERIOD   2
1
              HEAD IN LAYER   1 AT END OF TIME STEP   7 IN STRESS PERIOD    2
  ---------------------------------------------------------------------------

            1           2           3           4           5           6           7           8           9          10
 ........................................................................................................................
   1    10.00       10.00       10.00      10.000       9.999       9.991       9.930       9.533       7.483      7.9923E-02
   2    10.00       10.00       10.00      10.000       9.999       9.991       9.930       9.533       7.483      7.9923E-02
   3    10.00       10.00       10.00      10.000       9.999       9.991       9.930       9.533       7.483      7.9923E-02
   4    10.00       10.00       10.00      10.000       9.999       9.991       9.930       9.533       7.483      7.9923E-02
   5    10.00       10.00       10.00      10.000       9.999       9.991       9.930       9.533       7.483      7.9923E-02
   6    10.00       10.00       10.00      10.000       9.999       9.991       9.930       9.533       7.483      7.9923E-02
   7    10.00       10.00       10.00      10.000       9.999       9.991       9.930       9.533       7.483      7.9923E-02
   8    10.00       10.00       10.00      10.000       9.999       9.991       9.930       9.533       7.483      7.9923E-02
   9    10.00       10.00       10.00      10.000       9.999       9.991       9.930       9.533       7.483      7.9923E-02
  10    10.00       10.00       10.00      10.000       9.999       9.991       9.930       9.533       7.483      7.9923E-02

 HEAD WILL BE SAVED ON UNIT   51 AT END OF TIME STEP    7, STRESS PERIOD    2

 DRAWDOWN WILL BE SAVED ON UNIT   52 AT END OF TIME STEP    7, STRESS PERIOD    2
1
  VOLUMETRIC BUDGET FOR ENTIRE MODEL AT END OF TIME STEP    7, STRESS PERIOD   2
  ------------------------------------------------------------------------------

     CUMULATIVE VOLUMES      L**3       RATES FOR THIS TIME STEP      L**3/T
     ------------------                 ------------------------

           IN:                                      IN:
           ---                                      ---
             STORAGE =      129834.9609               STORAGE =        3996.1624
       CONSTANT HEAD =           0.0000         CONSTANT HEAD =           0.0000
               WELLS =           0.0000                 WELLS =           0.0000
     HEAD DEP BOUNDS =       5.5166E-04       HEAD DEP BOUNDS =       3.0162E-04

            TOTAL IN =      129834.9609              TOTAL IN =        3996.1626

          OUT:                                     OUT:
          ----                                     ----
             STORAGE =           0.0000               STORAGE =           0.0000
       CONSTANT HEAD =           0.0000         CONSTANT HEAD =           0.0000
               WELLS =           0.0000                 WELLS =           0.0000
     HEAD DEP BOUNDS =      129834.9297       HEAD DEP BOUNDS =        3996.1467

           TOTAL OUT =      129834.9297             TOTAL OUT =        3996.1467

            IN - OUT =       3.1250E-02              IN - OUT =       1.5869E-02

 PERCENT DISCREPANCY =           0.00     PERCENT DISCREPANCY =           0.00






         TIME SUMMARY AT END OF TIME STEP    7 IN STRESS PERIOD    2
                    SECONDS     MINUTES      HOURS       DAYS        YEARS
                    -----------------------------------------------------------
   TIME STEP LENGTH  86400.      1440.0      24.000      1.0000     2.73785E-03
 STRESS PERIOD TIME 6.04800E+05  10080.      168.00      7.0000     1.91650E-02
         TOTAL TIME 6.91200E+05  11520.      192.00      8.0000     2.19028E-02
1
 
 SOLVING FOR HEAD 

 OUTPUT CONTROL FOR STRESS PERIOD    2   TIME STEP    8
    SAVE HEAD FOR ALL LAYERS
    SAVE DRAWDOWN FOR ALL LAYERS
    SAVE BUDGET
    PRINT HEAD FOR ALL LAYERS
    PRINT BUDGET
 UBDSV1 SAVING "         STORAGE" ON UNIT  53 AT TIME STEP  8, STRESS PERIOD   2
 UBDSV2 SAVING "   CONSTANT HEAD" ON UNIT  53 AT TIME STEP  8, STRESS PERIOD   2
 UBDSV1 SAVING "FLOW RIGHT FACE " ON UNIT  53 AT TIME STEP  8, STRESS PERIOD   2
 UBDSV1 SAVING "FLOW FRONT FACE " ON UNIT  53 AT TIME STEP  8, STRESS PERIOD   2
1
              HEAD IN LAYER   1 AT END OF TIME STEP   8 IN STRESS PERIOD    2
  ---------------------------------------------------------------------------

            1           2           3           4           5           6           7           8           9          10
 ........................................................................................................................
   1    10.00       10.00       10.00      10.000       9.998       9.987       9.907       9.433       7.230      7.6997E-02
   2    10.00       10.00       10.00      10.000       9.998       9.987       9.907       9.433       7.230      7.6997E-02
   3    10.00       10.00       10.00      10.000       9.998       9.987       9.907       9.433       7.230      7.6997E-02
   4    10.00       10.00       10.00      10.000       9.998       9.987       9.907       9.433       7.230      7.6997E-02
   5    10.00       10.00       10.00      10.000       9.998       9.987       9.907       9.433       7.230      7.6997E-02
   6    10.00       10.00       10.00      10.000       9.998       9.987       9.907       9.433       7.230      7.6997E-02
   7    10.00       10.00       10.00      10.000       9.998       9.987       9.907       9.433       7.230      7.6997E-02
   8    10.00       10.00       10.00      10.000       9.998       9.987       9.907       9.433       7.230      7.6997E-02
   9    10.00       10.00       10.00      10.000       9.998       9.987       9.907       9.433       7.230      7.6997E-02
  10    10.00       10.00       10.00      10.000       9.998       9.987       9.907       9.433       7.230      7.6997E-02

 HEAD WILL BE SAVED ON UNIT   51 AT END OF TIME STEP    8, STRESS PERIOD    2

 DRAWDOWN WILL BE SAVED ON UNIT   52 AT END OF TIME STEP    8, STRESS PERIOD    2
1
  VOLUMETRIC BUDGET FOR ENTIRE MODEL AT END OF TIME STEP    8, STRESS PERIOD   2
  ------------------------------------------------------------------------------

     CUMULATIVE VOLUMES      L**3       RATES FOR THIS TIME STEP      L**3/T
     ------------------                 ------------------------

           IN:                                      IN:
           ---                                      ---
             STORAGE =      133684.7812               STORAGE =        3849.8201
       CONSTANT HEAD =           0.0000         CONSTANT HEAD =           0.0000
               WELLS =           0.0000                 WELLS =           0.0000
     HEAD DEP BOUNDS =       1.5547E-03       HEAD DEP BOUNDS =       1.0031E-03

            TOTAL IN =      133684.7812              TOTAL IN =        3849.8210

          OUT:                                     OUT:
          ----                                     ----
             STORAGE =           0.0000               STORAGE =           0.0000
       CONSTANT HEAD =           0.0000         CONSTANT HEAD =           0.0000
               WELLS =           0.0000                 WELLS =           0.0000
     HEAD DEP BOUNDS =      133684.7656       HEAD DEP BOUNDS =        3849.8291

           TOTAL OUT =      133684.7656             TOTAL OUT =        3849.8291

            IN - OUT =       1.5625E-02              IN - OUT =      -8.0566E-03

 PERCENT DISCREPANCY =           0.00     PERCENT DISCREPANCY =          -0.00






         TIME SUMMARY AT END OF TIME STEP    8 IN STRESS PERIOD    2
                    SECONDS     MINUTES      HOURS       DAYS        YEARS
                    -----------------------------------------------------------
   TIME STEP LENGTH  86400.      1440.0      24.000      1.0000     2.73785E-03
 STRESS PERIOD TIME 6.91200E+05  11520.      192.00      8.0000     2.19028E-02
         TOTAL TIME 7.77600E+05  12960.      216.00      9.0000     2.46407E-02
1
 
 SOLVING FOR HEAD 

 OUTPUT CONTROL FOR STRESS PERIOD    2   TIME STEP    9
    SAVE HEAD FOR ALL LAYERS
    SAVE DRAWDOWN FOR ALL LAYERS
    SAVE BUDGET
    PRINT HEAD FOR ALL LAYERS
    PRINT BUDGET
 UBDSV1 SAVING "         STORAGE" ON UNIT  53 AT TIME STEP  9, STRESS PERIOD   2
 UBDSV2 SAVING "   CONSTANT HEAD" ON UNIT  53 AT TIME STEP  9, STRESS PERIOD   2
 UBDSV1 SAVING "FLOW RIGHT FACE " ON UNIT  53 AT TIME STEP  9, STRESS PERIOD   2
 UBDSV1 SAVING "FLOW FRONT FACE " ON UNIT  53 AT TIME STEP  9, STRESS PERIOD   2
1
              HEAD IN LAYER   1 AT END OF TIME STEP   9 IN STRESS PERIOD    2
  ---------------------------------------------------------------------------

            1           2           3           4           5           6           7           8           9          10
 ........................................................................................................................
   1    10.00       10.00       10.00      10.000       9.998       9.982       9.880       9.330       6.996      7.4336E-02
   2    10.00       10.00       10.00      10.000       9.998       9.982       9.880       9.330       6.996      7.4336E-02
   3    10.00       10.00       10.00      10.000       9.998       9.982       9.880       9.330       6.996      7.4336E-02
   4    10.00       10.00       10.00      10.000       9.998       9.982       9.880       9.330       6.996      7.4336E-02
   5    10.00       10.00       10.00      10.000       9.998       9.982       9.880       9.330       6.996      7.4336E-02
   6    10.00       10.00       10.00      10.000       9.998       9.982       9.880       9.330       6.996      7.4336E-02
   7    10.00       10.00       10.00      10.000       9.998       9.982       9.880       9.330       6.996      7.4336E-02
   8    10.00       10.00       10.00      10.000       9.998       9.982       9.880       9.330       6.996      7.4336E-02
   9    10.00       10.00       10.00      10.000       9.998       9.982       9.880       9.330       6.996      7.4336E-02
  10    10.00       10.00       10.00      10.000       9.998       9.982       9.880       9.330       6.996      7.4336E-02

 HEAD WILL BE SAVED ON UNIT   51 AT END OF TIME STEP    9, STRESS PERIOD    2

 DRAWDOWN WILL BE SAVED ON UNIT   52 AT END OF TIME STEP    9, STRESS PERIOD    2
1
  VOLUMETRIC BUDGET FOR ENTIRE MODEL AT END OF TIME STEP    9, STRESS PERIOD   2
  ------------------------------------------------------------------------------

     CUMULATIVE VOLUMES      L**3       RATES FOR THIS TIME STEP      L**3/T
     ------------------                 ------------------------

           IN:                                      IN:
           ---                                      ---
             STORAGE =      137401.5938               STORAGE =        3716.8164
       CONSTANT HEAD =           0.0000         CONSTANT HEAD =           0.0000
               WELLS =           0.0000                 WELLS =           0.0000
     HEAD DEP BOUNDS =       3.3843E-03       HEAD DEP BOUNDS =       1.8296E-03

            TOTAL IN =      137401.5938              TOTAL IN =        3716.8181

          OUT:                                     OUT:
          ----                                     ----
             STORAGE =           0.0000               STORAGE =           0.0000
       CONSTANT HEAD =           0.0000         CONSTANT HEAD =           0.0000
               WELLS =           0.0000                 WELLS =           0.0000
     HEAD DEP BOUNDS =      137401.5781       HEAD DEP BOUNDS =        3716.8093

           TOTAL OUT =      137401.5781             TOTAL OUT =        3716.8093

            IN - OUT =       1.5625E-02              IN - OUT =       8.7891E-03

 PERCENT DISCREPANCY =           0.00     PERCENT DISCREPANCY =           0.00






         TIME SUMMARY AT END OF TIME STEP    9 IN STRESS PERIOD    2
                    SECONDS     MINUTES      HOURS       DAYS        YEARS
                    -----------------------------------------------------------
   TIME STEP LENGTH  86400.      1440.0      24.000      1.0000     2.73785E-03
 STRESS PERIOD TIME 7.77600E+05  12960.      216.00      9.0000     2.46407E-02
         TOTAL TIME 8.64000E+05  14400.      240.00      10.000     2.73785E-02
1
 
 SOLVING FOR HEAD 

 OUTPUT CONTROL FOR STRESS PERIOD    2   TIME STEP   10
    SAVE HEAD FOR ALL LAYERS
    SAVE DRAWDOWN FOR ALL LAYERS
    SAVE BUDGET
    PRINT HEAD FOR ALL LAYERS
    PRINT BUDGET
 UBDSV1 SAVING "         STORAGE" ON UNIT  53 AT TIME STEP 10, STRESS PERIOD   2
 UBDSV2 SAVING "   CONSTANT HEAD" ON UNIT  53 AT TIME STEP 10, STRESS PERIOD   2
 UBDSV1 SAVING "FLOW RIGHT FACE " ON UNIT  53 AT TIME STEP 10, STRESS PERIOD   2
 UBDSV1 SAVING "FLOW FRONT FACE " ON UNIT  53 AT TIME STEP 10, STRESS PERIOD   2
1
              HEAD IN LAYER   1 AT END OF TIME STEP  10 IN STRESS PERIOD    2
  ---------------------------------------------------------------------------

            1           2           3           4           5           6           7           8           9          10
 ........................................................................................................................
   1    10.00       10.00      10.000      10.000       9.996       9.976       9.850       9.226       6.781      7.1894E-02
   2    10.00       10.00      10.000      10.000       9.996       9.976       9.850       9.226       6.781      7.1894E-02
   3    10.00       10.00      10.000      10.000       9.996       9.976       9.850       9.226       6.781      7.1894E-02
   4    10.00       10.00      10.000      10.000       9.996       9.976       9.850       9.226       6.781      7.1894E-02
   5    10.00       10.00      10.000      10.000       9.996       9.976       9.850       9.226       6.781      7.1894E-02
   6    10.00       10.00      10.000      10.000       9.996       9.976       9.850       9.226       6.781      7.1894E-02
   7    10.00       10.00      10.000      10.000       9.996       9.976       9.850       9.226       6.781      7.1894E-02
   8    10.00       10.00      10.000      10.000       9.996       9.976       9.850       9.226       6.781      7.1894E-02
   9    10.00       10.00      10.000      10.000       9.996       9.976       9.850       9.226       6.781      7.1894E-02
  10    10.00       10.00      10.000      10.000       9.996       9.976       9.850       9.226       6.781      7.1894E-02

 HEAD WILL BE SAVED ON UNIT   51 AT END OF TIME STEP   10, STRESS PERIOD    2

 DRAWDOWN WILL BE SAVED ON UNIT   52 AT END OF TIME STEP   10, STRESS PERIOD    2
1
  VOLUMETRIC BUDGET FOR ENTIRE MODEL AT END OF TIME STEP   10, STRESS PERIOD   2
  ------------------------------------------------------------------------------

     CUMULATIVE VOLUMES      L**3       RATES FOR THIS TIME STEP      L**3/T
     ------------------                 ------------------------

           IN:                                      IN:
           ---                                      ---
             STORAGE =      140996.3125               STORAGE =        3594.7190
       CONSTANT HEAD =           0.0000         CONSTANT HEAD =           0.0000
               WELLS =           0.0000                 WELLS =           0.0000
     HEAD DEP BOUNDS =       6.6752E-03       HEAD DEP BOUNDS =       3.2909E-03

            TOTAL IN =      140996.3125              TOTAL IN =        3594.7222

          OUT:                                     OUT:
          ----                                     ----
             STORAGE =           0.0000               STORAGE =           0.0000
       CONSTANT HEAD =           0.0000         CONSTANT HEAD =           0.0000
               WELLS =           0.0000                 WELLS =           0.0000
     HEAD DEP BOUNDS =      140996.2969       HEAD DEP BOUNDS =        3594.7166

           TOTAL OUT =      140996.2969             TOTAL OUT =        3594.7166

            IN - OUT =       1.5625E-02              IN - OUT =       5.6152E-03

 PERCENT DISCREPANCY =           0.00     PERCENT DISCREPANCY =           0.00






         TIME SUMMARY AT END OF TIME STEP   10 IN STRESS PERIOD    2
                    SECONDS     MINUTES      HOURS       DAYS        YEARS
                    -----------------------------------------------------------
   TIME STEP LENGTH  86400.      1440.0      24.000      1.0000     2.73785E-03
 STRESS PERIOD TIME 8.64000E+05  14400.      240.00      10.000     2.73785E-02
         TOTAL TIME 9.50400E+05  15840.      264.00      11.000     3.01164E-02
1
 
 SOLVING FOR HEAD 

 OUTPUT CONTROL FOR STRESS PERIOD    2   TIME STEP   11
    SAVE HEAD FOR ALL LAYERS
    SAVE DRAWDOWN FOR ALL LAYERS
    SAVE BUDGET
    PRINT HEAD FOR ALL LAYERS
    PRINT BUDGET
 UBDSV1 SAVING "         STORAGE" ON UNIT  53 AT TIME STEP 11, STRESS PERIOD   2
 UBDSV2 SAVING "   CONSTANT HEAD" ON UNIT  53 AT TIME STEP 11, STRESS PERIOD   2
 UBDSV1 SAVING "FLOW RIGHT FACE " ON UNIT  53 AT TIME STEP 11, STRESS PERIOD   2
 UBDSV1 SAVING "FLOW FRONT FACE " ON UNIT  53 AT TIME STEP 11, STRESS PERIOD   2
1
              HEAD IN LAYER   1 AT END OF TIME STEP  11 IN STRESS PERIOD    2
  ---------------------------------------------------------------------------

            1           2           3           4           5           6           7           8           9          10
 ........................................................................................................................
   1    10.00       10.00      10.000       9.999       9.995       9.968       9.818       9.120       6.582      6.9644E-02
   2    10.00       10.00      10.000       9.999       9.995       9.968       9.818       9.120       6.582      6.9644E-02
   3    10.00       10.00      10.000       9.999       9.995       9.968       9.818       9.120       6.582      6.9644E-02
   4    10.00       10.00      10.000       9.999       9.995       9.968       9.818       9.120       6.582      6.9644E-02
   5    10.00       10.00      10.000       9.999       9.995       9.968       9.818       9.120       6.582      6.9644E-02
   6    10.00       10.00      10.000       9.999       9.995       9.968       9.818       9.120       6.582      6.9644E-02
   7    10.00       10.00      10.000       9.999       9.995       9.968       9.818       9.120       6.582      6.9644E-02
   8    10.00       10.00      10.000       9.999       9.995       9.968       9.818       9.120       6.582      6.9644E-02
   9    10.00       10.00      10.000       9.999       9.995       9.968       9.818       9.120       6.582      6.9644E-02
  10    10.00       10.00      10.000       9.999       9.995       9.968       9.818       9.120       6.582      6.9644E-02

 HEAD WILL BE SAVED ON UNIT   51 AT END OF TIME STEP   11, STRESS PERIOD    2

 DRAWDOWN WILL BE SAVED ON UNIT   52 AT END OF TIME STEP   11, STRESS PERIOD    2
1
  VOLUMETRIC BUDGET FOR ENTIRE MODEL AT END OF TIME STEP   11, STRESS PERIOD   2
  ------------------------------------------------------------------------------

     CUMULATIVE VOLUMES      L**3       RATES FOR THIS TIME STEP      L**3/T
     ------------------                 ------------------------

           IN:                                      IN:
           ---                                      ---
             STORAGE =      144478.5312               STORAGE =        3482.2253
       CONSTANT HEAD =           0.0000         CONSTANT HEAD =           0.0000
               WELLS =           0.0000                 WELLS =           0.0000
     HEAD DEP BOUNDS =       1.2150E-02       HEAD DEP BOUNDS =       5.4747E-03

            TOTAL IN =      144478.5469              TOTAL IN =        3482.2307

          OUT:                                     OUT:
          ----                                     ----
             STORAGE =           0.0000               STORAGE =           0.0000
       CONSTANT HEAD =           0.0000         CONSTANT HEAD =           0.0000
               WELLS =           0.0000                 WELLS =           0.0000
     HEAD DEP BOUNDS =      144478.5156       HEAD DEP BOUNDS =        3482.2129

           TOTAL OUT =      144478.5156             TOTAL OUT =        3482.2129

            IN - OUT =       3.1250E-02              IN - OUT =       1.7822E-02

 PERCENT DISCREPANCY =           0.00     PERCENT DISCREPANCY =           0.00






         TIME SUMMARY AT END OF TIME STEP   11 IN STRESS PERIOD    2
                    SECONDS     MINUTES      HOURS       DAYS        YEARS
                    -----------------------------------------------------------
   TIME STEP LENGTH  86400.      1440.0      24.000      1.0000     2.73785E-03
 STRESS PERIOD TIME 9.50400E+05  15840.      264.00      11.000     3.01164E-02
         TOTAL TIME 1.03680E+06  17280.      288.00      12.000     3.28542E-02
1
 
 SOLVING FOR HEAD 

 OUTPUT CONTROL FOR STRESS PERIOD    2   TIME STEP   12
    SAVE HEAD FOR ALL LAYERS
    SAVE DRAWDOWN FOR ALL LAYERS
    SAVE BUDGET
    PRINT HEAD FOR ALL LAYERS
    PRINT BUDGET
 UBDSV1 SAVING "         STORAGE" ON UNIT  53 AT TIME STEP 12, STRESS PERIOD   2
 UBDSV2 SAVING "   CONSTANT HEAD" ON UNIT  53 AT TIME STEP 12, STRESS PERIOD   2
 UBDSV1 SAVING "FLOW RIGHT FACE " ON UNIT  53 AT TIME STEP 12, STRESS PERIOD   2
 UBDSV1 SAVING "FLOW FRONT FACE " ON UNIT  53 AT TIME STEP 12, STRESS PERIOD   2
1
              HEAD IN LAYER   1 AT END OF TIME STEP  12 IN STRESS PERIOD    2
  ---------------------------------------------------------------------------

            1           2           3           4           5           6           7           8           9          10
 ........................................................................................................................
   1    10.00       10.00      10.000       9.999       9.993       9.960       9.783       9.015       6.397      6.7564E-02
   2    10.00       10.00      10.000       9.999       9.993       9.960       9.783       9.015       6.397      6.7564E-02
   3    10.00       10.00      10.000       9.999       9.993       9.960       9.783       9.015       6.397      6.7564E-02
   4    10.00       10.00      10.000       9.999       9.993       9.960       9.783       9.015       6.397      6.7564E-02
   5    10.00       10.00      10.000       9.999       9.993       9.960       9.783       9.015       6.397      6.7564E-02
   6    10.00       10.00      10.000       9.999       9.993       9.960       9.783       9.015       6.397      6.7564E-02
   7    10.00       10.00      10.000       9.999       9.993       9.960       9.783       9.015       6.397      6.7564E-02
   8    10.00       10.00      10.000       9.999       9.993       9.960       9.783       9.015       6.397      6.7564E-02
   9    10.00       10.00      10.000       9.999       9.993       9.960       9.783       9.015       6.397      6.7564E-02
  10    10.00       10.00      10.000       9.999       9.993       9.960       9.783       9.015       6.397      6.7564E-02

 HEAD WILL BE SAVED ON UNIT   51 AT END OF TIME STEP   12, STRESS PERIOD    2

 DRAWDOWN WILL BE SAVED ON UNIT   52 AT END OF TIME STEP   12, STRESS PERIOD    2
1
  VOLUMETRIC BUDGET FOR ENTIRE MODEL AT END OF TIME STEP   12, STRESS PERIOD   2
  ------------------------------------------------------------------------------

     CUMULATIVE VOLUMES      L**3       RATES FOR THIS TIME STEP      L**3/T
     ------------------                 ------------------------

           IN:                                      IN:
           ---                                      ---
             STORAGE =      147856.7188               STORAGE =        3378.1919
       CONSTANT HEAD =           0.0000         CONSTANT HEAD =           0.0000
               WELLS =           0.0000                 WELLS =           0.0000
     HEAD DEP BOUNDS =       2.0594E-02       HEAD DEP BOUNDS =       8.4445E-03

            TOTAL IN =      147856.7344              TOTAL IN =        3378.2004

          OUT:                                     OUT:
          ----                                     ----
             STORAGE =           0.0000               STORAGE =           0.0000
       CONSTANT HEAD =           0.0000         CONSTANT HEAD =           0.0000
               WELLS =           0.0000                 WELLS =           0.0000
     HEAD DEP BOUNDS =      147856.7344       HEAD DEP BOUNDS =        3378.2163

           TOTAL OUT =      147856.7344             TOTAL OUT =        3378.2163

            IN - OUT =           0.0000              IN - OUT =      -1.5869E-02

 PERCENT DISCREPANCY =           0.00     PERCENT DISCREPANCY =          -0.00






         TIME SUMMARY AT END OF TIME STEP   12 IN STRESS PERIOD    2
                    SECONDS     MINUTES      HOURS       DAYS        YEARS
                    -----------------------------------------------------------
   TIME STEP LENGTH  86400.      1440.0      24.000      1.0000     2.73785E-03
 STRESS PERIOD TIME 1.03680E+06  17280.      288.00      12.000     3.28542E-02
         TOTAL TIME 1.12320E+06  18720.      312.00      13.000     3.55921E-02
1
 
 SOLVING FOR HEAD 

 OUTPUT CONTROL FOR STRESS PERIOD    2   TIME STEP   13
    SAVE HEAD FOR ALL LAYERS
    SAVE DRAWDOWN FOR ALL LAYERS
    SAVE BUDGET
    PRINT HEAD FOR ALL LAYERS
    PRINT BUDGET
 UBDSV1 SAVING "         STORAGE" ON UNIT  53 AT TIME STEP 13, STRESS PERIOD   2
 UBDSV2 SAVING "   CONSTANT HEAD" ON UNIT  53 AT TIME STEP 13, STRESS PERIOD   2
 UBDSV1 SAVING "FLOW RIGHT FACE " ON UNIT  53 AT TIME STEP 13, STRESS PERIOD   2
 UBDSV1 SAVING "FLOW FRONT FACE " ON UNIT  53 AT TIME STEP 13, STRESS PERIOD   2
1
              HEAD IN LAYER   1 AT END OF TIME STEP  13 IN STRESS PERIOD    2
  ---------------------------------------------------------------------------

            1           2           3           4           5           6           7           8           9          10
 ........................................................................................................................
   1    10.00       10.00      10.000       9.999       9.991       9.950       9.746       8.910       6.225      6.5637E-02
   2    10.00       10.00      10.000       9.999       9.991       9.950       9.746       8.910       6.225      6.5637E-02
   3    10.00       10.00      10.000       9.999       9.991       9.950       9.746       8.910       6.225      6.5637E-02
   4    10.00       10.00      10.000       9.999       9.991       9.950       9.746       8.910       6.225      6.5637E-02
   5    10.00       10.00      10.000       9.999       9.991       9.950       9.746       8.910       6.225      6.5637E-02
   6    10.00       10.00      10.000       9.999       9.991       9.950       9.746       8.910       6.225      6.5637E-02
   7    10.00       10.00      10.000       9.999       9.991       9.950       9.746       8.910       6.225      6.5637E-02
   8    10.00       10.00      10.000       9.999       9.991       9.950       9.746       8.910       6.225      6.5637E-02
   9    10.00       10.00      10.000       9.999       9.991       9.950       9.746       8.910       6.225      6.5637E-02
  10    10.00       10.00      10.000       9.999       9.991       9.950       9.746       8.910       6.225      6.5637E-02

 HEAD WILL BE SAVED ON UNIT   51 AT END OF TIME STEP   13, STRESS PERIOD    2

 DRAWDOWN WILL BE SAVED ON UNIT   52 AT END OF TIME STEP   13, STRESS PERIOD    2
1
  VOLUMETRIC BUDGET FOR ENTIRE MODEL AT END OF TIME STEP   13, STRESS PERIOD   2
  ------------------------------------------------------------------------------

     CUMULATIVE VOLUMES      L**3       RATES FOR THIS TIME STEP      L**3/T
     ------------------                 ------------------------

           IN:                                      IN:
           ---                                      ---
             STORAGE =      151138.5469               STORAGE =        3281.8257
       CONSTANT HEAD =           0.0000         CONSTANT HEAD =           0.0000
               WELLS =           0.0000                 WELLS =           0.0000
     HEAD DEP BOUNDS =       3.3308E-02       HEAD DEP BOUNDS =       1.2714E-02

            TOTAL IN =      151138.5781              TOTAL IN =        3281.8384

          OUT:                                     OUT:
          ----                                     ----
             STORAGE =           0.0000               STORAGE =           0.0000
       CONSTANT HEAD =           0.0000         CONSTANT HEAD =           0.0000
               WELLS =           0.0000                 WELLS =           0.0000
     HEAD DEP BOUNDS =      151138.5781       HEAD DEP BOUNDS =        3281.8452

           TOTAL OUT =      151138.5781             TOTAL OUT =        3281.8452

            IN - OUT =           0.0000              IN - OUT =      -6.8359E-03

 PERCENT DISCREPANCY =           0.00     PERCENT DISCREPANCY =          -0.00






         TIME SUMMARY AT END OF TIME STEP   13 IN STRESS PERIOD    2
                    SECONDS     MINUTES      HOURS       DAYS        YEARS
                    -----------------------------------------------------------
   TIME STEP LENGTH  86400.      1440.0      24.000      1.0000     2.73785E-03
 STRESS PERIOD TIME 1.12320E+06  18720.      312.00      13.000     3.55921E-02
         TOTAL TIME 1.20960E+06  20160.      336.00      14.000     3.83299E-02
1
 
 SOLVING FOR HEAD 

 OUTPUT CONTROL FOR STRESS PERIOD    2   TIME STEP   14
    SAVE HEAD FOR ALL LAYERS
    SAVE DRAWDOWN FOR ALL LAYERS
    SAVE BUDGET
    PRINT HEAD FOR ALL LAYERS
    PRINT BUDGET
 UBDSV1 SAVING "         STORAGE" ON UNIT  53 AT TIME STEP 14, STRESS PERIOD   2
 UBDSV2 SAVING "   CONSTANT HEAD" ON UNIT  53 AT TIME STEP 14, STRESS PERIOD   2
 UBDSV1 SAVING "FLOW RIGHT FACE " ON UNIT  53 AT TIME STEP 14, STRESS PERIOD   2
 UBDSV1 SAVING "FLOW FRONT FACE " ON UNIT  53 AT TIME STEP 14, STRESS PERIOD   2
1
              HEAD IN LAYER   1 AT END OF TIME STEP  14 IN STRESS PERIOD    2
  ---------------------------------------------------------------------------

            1           2           3           4           5           6           7           8           9          10
 ........................................................................................................................
   1    10.00       10.00      10.000       9.998       9.989       9.939       9.706       8.806       6.065      6.3846E-02
   2    10.00       10.00      10.000       9.998       9.989       9.939       9.706       8.806       6.065      6.3846E-02
   3    10.00       10.00      10.000       9.998       9.989       9.939       9.706       8.806       6.065      6.3846E-02
   4    10.00       10.00      10.000       9.998       9.989       9.939       9.706       8.806       6.065      6.3846E-02
   5    10.00       10.00      10.000       9.998       9.989       9.939       9.706       8.806       6.065      6.3846E-02
   6    10.00       10.00      10.000       9.998       9.989       9.939       9.706       8.806       6.065      6.3846E-02
   7    10.00       10.00      10.000       9.998       9.989       9.939       9.706       8.806       6.065      6.3846E-02
   8    10.00       10.00      10.000       9.998       9.989       9.939       9.706       8.806       6.065      6.3846E-02
   9    10.00       10.00      10.000       9.998       9.989       9.939       9.706       8.806       6.065      6.3846E-02
  10    10.00       10.00      10.000       9.998       9.989       9.939       9.706       8.806       6.065      6.3846E-02

 HEAD WILL BE SAVED ON UNIT   51 AT END OF TIME STEP   14, STRESS PERIOD    2

 DRAWDOWN WILL BE SAVED ON UNIT   52 AT END OF TIME STEP   14, STRESS PERIOD    2
1
  VOLUMETRIC BUDGET FOR ENTIRE MODEL AT END OF TIME STEP   14, STRESS PERIOD   2
  ------------------------------------------------------------------------------

     CUMULATIVE VOLUMES      L**3       RATES FOR THIS TIME STEP      L**3/T
     ------------------                 ------------------------

           IN:                                      IN:
           ---                                      ---
             STORAGE =      154330.8125               STORAGE =        3192.2732
       CONSTANT HEAD =           0.0000         CONSTANT HEAD =           0.0000
               WELLS =           0.0000                 WELLS =           0.0000
     HEAD DEP BOUNDS =       5.1706E-02       HEAD DEP BOUNDS =       1.8398E-02

            TOTAL IN =      154330.8594              TOTAL IN =        3192.2915

          OUT:                                     OUT:
          ----                                     ----
             STORAGE =           0.0000               STORAGE =           0.0000
       CONSTANT HEAD =           0.0000         CONSTANT HEAD =           0.0000
               WELLS =           0.0000                 WELLS =           0.0000
     HEAD DEP BOUNDS =      154330.8750       HEAD DEP BOUNDS =        3192.2944

           TOTAL OUT =      154330.8750             TOTAL OUT =        3192.2944

            IN - OUT =      -1.5625E-02              IN - OUT =      -2.9297E-03

 PERCENT DISCREPANCY =          -0.00     PERCENT DISCREPANCY =          -0.00






         TIME SUMMARY AT END OF TIME STEP   14 IN STRESS PERIOD    2
                    SECONDS     MINUTES      HOURS       DAYS        YEARS
                    -----------------------------------------------------------
   TIME STEP LENGTH  86400.      1440.0      24.000      1.0000     2.73785E-03
 STRESS PERIOD TIME 1.20960E+06  20160.      336.00      14.000     3.83299E-02
         TOTAL TIME 1.29600E+06  21600.      360.00      15.000     4.10678E-02
1
 
 SOLVING FOR HEAD 

 OUTPUT CONTROL FOR STRESS PERIOD    2   TIME STEP   15
    SAVE HEAD FOR ALL LAYERS
    SAVE DRAWDOWN FOR ALL LAYERS
    SAVE BUDGET
    PRINT HEAD FOR ALL LAYERS
    PRINT BUDGET
 UBDSV1 SAVING "         STORAGE" ON UNIT  53 AT TIME STEP 15, STRESS PERIOD   2
 UBDSV2 SAVING "   CONSTANT HEAD" ON UNIT  53 AT TIME STEP 15, STRESS PERIOD   2
 UBDSV1 SAVING "FLOW RIGHT FACE " ON UNIT  53 AT TIME STEP 15, STRESS PERIOD   2
 UBDSV1 SAVING "FLOW FRONT FACE " ON UNIT  53 AT TIME STEP 15, STRESS PERIOD   2
1
              HEAD IN LAYER   1 AT END OF TIME STEP  15 IN STRESS PERIOD    2
  ---------------------------------------------------------------------------

            1           2           3           4           5           6           7           8           9          10
 ........................................................................................................................
   1    10.00      10.000      10.000       9.998       9.986       9.927       9.665       8.703       5.916      6.2178E-02
   2    10.00      10.000      10.000       9.998       9.986       9.927       9.665       8.703       5.916      6.2178E-02
   3    10.00      10.000      10.000       9.998       9.986       9.927       9.665       8.703       5.916      6.2178E-02
   4    10.00      10.000      10.000       9.998       9.986       9.927       9.665       8.703       5.916      6.2178E-02
   5    10.00      10.000      10.000       9.998       9.986       9.927       9.665       8.703       5.916      6.2178E-02
   6    10.00      10.000      10.000       9.998       9.986       9.927       9.665       8.703       5.916      6.2178E-02
   7    10.00      10.000      10.000       9.998       9.986       9.927       9.665       8.703       5.916      6.2178E-02
   8    10.00      10.000      10.000       9.998       9.986       9.927       9.665       8.703       5.916      6.2178E-02
   9    10.00      10.000      10.000       9.998       9.986       9.927       9.665       8.703       5.916      6.2178E-02
  10    10.00      10.000      10.000       9.998       9.986       9.927       9.665       8.703       5.916      6.2178E-02

 HEAD WILL BE SAVED ON UNIT   51 AT END OF TIME STEP   15, STRESS PERIOD    2

 DRAWDOWN WILL BE SAVED ON UNIT   52 AT END OF TIME STEP   15, STRESS PERIOD    2
1
  VOLUMETRIC BUDGET FOR ENTIRE MODEL AT END OF TIME STEP   15, STRESS PERIOD   2
  ------------------------------------------------------------------------------

     CUMULATIVE VOLUMES      L**3       RATES FOR THIS TIME STEP      L**3/T
     ------------------                 ------------------------

           IN:                                      IN:
           ---                                      ---
             STORAGE =      157439.6562               STORAGE =        3108.8433
       CONSTANT HEAD =           0.0000         CONSTANT HEAD =           0.0000
               WELLS =           0.0000                 WELLS =           0.0000
     HEAD DEP BOUNDS =       7.8188E-02       HEAD DEP BOUNDS =       2.6482E-02

            TOTAL IN =      157439.7344              TOTAL IN =        3108.8696

          OUT:                                     OUT:
          ----                                     ----
             STORAGE =           0.0000               STORAGE =           0.0000
       CONSTANT HEAD =           0.0000         CONSTANT HEAD =           0.0000
               WELLS =           0.0000                 WELLS =           0.0000
     HEAD DEP BOUNDS =      157439.7656       HEAD DEP BOUNDS =        3108.8855

           TOTAL OUT =      157439.7656             TOTAL OUT =        3108.8855

            IN - OUT =      -3.1250E-02              IN - OUT =      -1.5869E-02

 PERCENT DISCREPANCY =          -0.00     PERCENT DISCREPANCY =          -0.00






         TIME SUMMARY AT END OF TIME STEP   15 IN STRESS PERIOD    2
                    SECONDS     MINUTES      HOURS       DAYS        YEARS
                    -----------------------------------------------------------
   TIME STEP LENGTH  86400.      1440.0      24.000      1.0000     2.73785E-03
 STRESS PERIOD TIME 1.29600E+06  21600.      360.00      15.000     4.10678E-02
         TOTAL TIME 1.38240E+06  23040.      384.00      16.000     4.38056E-02
1
 
 SOLVING FOR HEAD 

 OUTPUT CONTROL FOR STRESS PERIOD    2   TIME STEP   16
    SAVE HEAD FOR ALL LAYERS
    SAVE DRAWDOWN FOR ALL LAYERS
    SAVE BUDGET
    PRINT HEAD FOR ALL LAYERS
    PRINT BUDGET
 UBDSV1 SAVING "         STORAGE" ON UNIT  53 AT TIME STEP 16, STRESS PERIOD   2
 UBDSV2 SAVING "   CONSTANT HEAD" ON UNIT  53 AT TIME STEP 16, STRESS PERIOD   2
 UBDSV1 SAVING "FLOW RIGHT FACE " ON UNIT  53 AT TIME STEP 16, STRESS PERIOD   2
 UBDSV1 SAVING "FLOW FRONT FACE " ON UNIT  53 AT TIME STEP 16, STRESS PERIOD   2
1
              HEAD IN LAYER   1 AT END OF TIME STEP  16 IN STRESS PERIOD    2
  ---------------------------------------------------------------------------

            1           2           3           4           5           6           7           8           9          10
 ........................................................................................................................
   1    10.00      10.000      10.000       9.997       9.983       9.914       9.622       8.602       5.776      6.0620E-02
   2    10.00      10.000      10.000       9.997       9.983       9.914       9.622       8.602       5.776      6.0620E-02
   3    10.00      10.000      10.000       9.997       9.983       9.914       9.622       8.602       5.776      6.0620E-02
   4    10.00      10.000      10.000       9.997       9.983       9.914       9.622       8.602       5.776      6.0620E-02
   5    10.00      10.000      10.000       9.997       9.983       9.914       9.622       8.602       5.776      6.0620E-02
   6    10.00      10.000      10.000       9.997       9.983       9.914       9.622       8.602       5.776      6.0620E-02
   7    10.00      10.000      10.000       9.997       9.983       9.914       9.622       8.602       5.776      6.0620E-02
   8    10.00      10.000      10.000       9.997       9.983       9.914       9.622       8.602       5.776      6.0620E-02
   9    10.00      10.000      10.000       9.997       9.983       9.914       9.622       8.602       5.776      6.0620E-02
  10    10.00      10.000      10.000       9.997       9.983       9.914       9.622       8.602       5.776      6.0620E-02

 HEAD WILL BE SAVED ON UNIT   51 AT END OF TIME STEP   16, STRESS PERIOD    2

 DRAWDOWN WILL BE SAVED ON UNIT   52 AT END OF TIME STEP   16, STRESS PERIOD    2
1
  VOLUMETRIC BUDGET FOR ENTIRE MODEL AT END OF TIME STEP   16, STRESS PERIOD   2
  ------------------------------------------------------------------------------

     CUMULATIVE VOLUMES      L**3       RATES FOR THIS TIME STEP      L**3/T
     ------------------                 ------------------------

           IN:                                      IN:
           ---                                      ---
             STORAGE =      160470.6562               STORAGE =        3031.0010
       CONSTANT HEAD =           0.0000         CONSTANT HEAD =           0.0000
               WELLS =           0.0000                 WELLS =           0.0000
     HEAD DEP BOUNDS =           0.1153       HEAD DEP BOUNDS =       3.7126E-02

            TOTAL IN =      160470.7656              TOTAL IN =        3031.0381

          OUT:                                     OUT:
          ----                                     ----
             STORAGE =           0.0000               STORAGE =           0.0000
       CONSTANT HEAD =           0.0000         CONSTANT HEAD =           0.0000
               WELLS =           0.0000                 WELLS =           0.0000
     HEAD DEP BOUNDS =      160470.7812       HEAD DEP BOUNDS =        3031.0171

           TOTAL OUT =      160470.7812             TOTAL OUT =        3031.0171

            IN - OUT =      -1.5625E-02              IN - OUT =       2.0996E-02

 PERCENT DISCREPANCY =          -0.00     PERCENT DISCREPANCY =           0.00






         TIME SUMMARY AT END OF TIME STEP   16 IN STRESS PERIOD    2
                    SECONDS     MINUTES      HOURS       DAYS        YEARS
                    -----------------------------------------------------------
   TIME STEP LENGTH  86400.      1440.0      24.000      1.0000     2.73785E-03
 STRESS PERIOD TIME 1.38240E+06  23040.      384.00      16.000     4.38056E-02
         TOTAL TIME 1.46880E+06  24480.      408.00      17.000     4.65435E-02
1
 
 SOLVING FOR HEAD 

 OUTPUT CONTROL FOR STRESS PERIOD    2   TIME STEP   17
    SAVE HEAD FOR ALL LAYERS
    SAVE DRAWDOWN FOR ALL LAYERS
    SAVE BUDGET
    PRINT HEAD FOR ALL LAYERS
    PRINT BUDGET
 UBDSV1 SAVING "         STORAGE" ON UNIT  53 AT TIME STEP 17, STRESS PERIOD   2
 UBDSV2 SAVING "   CONSTANT HEAD" ON UNIT  53 AT TIME STEP 17, STRESS PERIOD   2
 UBDSV1 SAVING "FLOW RIGHT FACE " ON UNIT  53 AT TIME STEP 17, STRESS PERIOD   2
 UBDSV1 SAVING "FLOW FRONT FACE " ON UNIT  53 AT TIME STEP 17, STRESS PERIOD   2
1
              HEAD IN LAYER   1 AT END OF TIME STEP  17 IN STRESS PERIOD    2
  ---------------------------------------------------------------------------

            1           2           3           4           5           6           7           8           9          10
 ........................................................................................................................
   1    10.00      10.000       9.999       9.996       9.979       9.899       9.578       8.502       5.644      5.9163E-02
   2    10.00      10.000       9.999       9.996       9.979       9.899       9.578       8.502       5.644      5.9163E-02
   3    10.00      10.000       9.999       9.996       9.979       9.899       9.578       8.502       5.644      5.9163E-02
   4    10.00      10.000       9.999       9.996       9.979       9.899       9.578       8.502       5.644      5.9163E-02
   5    10.00      10.000       9.999       9.996       9.979       9.899       9.578       8.502       5.644      5.9163E-02
   6    10.00      10.000       9.999       9.996       9.979       9.899       9.578       8.502       5.644      5.9163E-02
   7    10.00      10.000       9.999       9.996       9.979       9.899       9.578       8.502       5.644      5.9163E-02
   8    10.00      10.000       9.999       9.996       9.979       9.899       9.578       8.502       5.644      5.9163E-02
   9    10.00      10.000       9.999       9.996       9.979       9.899       9.578       8.502       5.644      5.9163E-02
  10    10.00      10.000       9.999       9.996       9.979       9.899       9.578       8.502       5.644      5.9163E-02

 HEAD WILL BE SAVED ON UNIT   51 AT END OF TIME STEP   17, STRESS PERIOD    2

 DRAWDOWN WILL BE SAVED ON UNIT   52 AT END OF TIME STEP   17, STRESS PERIOD    2
1
  VOLUMETRIC BUDGET FOR ENTIRE MODEL AT END OF TIME STEP   17, STRESS PERIOD   2
  ------------------------------------------------------------------------------

     CUMULATIVE VOLUMES      L**3       RATES FOR THIS TIME STEP      L**3/T
     ------------------                 ------------------------

           IN:                                      IN:
           ---                                      ---
             STORAGE =      163428.7656               STORAGE =        2958.1028
       CONSTANT HEAD =           0.0000         CONSTANT HEAD =           0.0000
               WELLS =           0.0000                 WELLS =           0.0000
     HEAD DEP BOUNDS =           0.1662       HEAD DEP BOUNDS =       5.0869E-02

            TOTAL IN =      163428.9375              TOTAL IN =        2958.1536

          OUT:                                     OUT:
          ----                                     ----
             STORAGE =           0.0000               STORAGE =           0.0000
       CONSTANT HEAD =           0.0000         CONSTANT HEAD =           0.0000
               WELLS =           0.0000                 WELLS =           0.0000
     HEAD DEP BOUNDS =      163428.9375       HEAD DEP BOUNDS =        2958.1545

           TOTAL OUT =      163428.9375             TOTAL OUT =        2958.1545

            IN - OUT =           0.0000              IN - OUT =      -9.7656E-04

 PERCENT DISCREPANCY =           0.00     PERCENT DISCREPANCY =          -0.00






         TIME SUMMARY AT END OF TIME STEP   17 IN STRESS PERIOD    2
                    SECONDS     MINUTES      HOURS       DAYS        YEARS
                    -----------------------------------------------------------
   TIME STEP LENGTH  86400.      1440.0      24.000      1.0000     2.73785E-03
 STRESS PERIOD TIME 1.46880E+06  24480.      408.00      17.000     4.65435E-02
         TOTAL TIME 1.55520E+06  25920.      432.00      18.000     4.92813E-02
1
 
 SOLVING FOR HEAD 

 OUTPUT CONTROL FOR STRESS PERIOD    2   TIME STEP   18
    SAVE HEAD FOR ALL LAYERS
    SAVE DRAWDOWN FOR ALL LAYERS
    SAVE BUDGET
    PRINT HEAD FOR ALL LAYERS
    PRINT BUDGET
 UBDSV1 SAVING "         STORAGE" ON UNIT  53 AT TIME STEP 18, STRESS PERIOD   2
 UBDSV2 SAVING "   CONSTANT HEAD" ON UNIT  53 AT TIME STEP 18, STRESS PERIOD   2
 UBDSV1 SAVING "FLOW RIGHT FACE " ON UNIT  53 AT TIME STEP 18, STRESS PERIOD   2
 UBDSV1 SAVING "FLOW FRONT FACE " ON UNIT  53 AT TIME STEP 18, STRESS PERIOD   2
1
              HEAD IN LAYER   1 AT END OF TIME STEP  18 IN STRESS PERIOD    2
  ---------------------------------------------------------------------------

            1           2           3           4           5           6           7           8           9          10
 ........................................................................................................................
   1    10.00      10.000       9.999       9.995       9.975       9.884       9.532       8.405       5.521      5.7797E-02
   2    10.00      10.000       9.999       9.995       9.975       9.884       9.532       8.405       5.521      5.7797E-02
   3    10.00      10.000       9.999       9.995       9.975       9.884       9.532       8.405       5.521      5.7797E-02
   4    10.00      10.000       9.999       9.995       9.975       9.884       9.532       8.405       5.521      5.7797E-02
   5    10.00      10.000       9.999       9.995       9.975       9.884       9.532       8.405       5.521      5.7797E-02
   6    10.00      10.000       9.999       9.995       9.975       9.884       9.532       8.405       5.521      5.7797E-02
   7    10.00      10.000       9.999       9.995       9.975       9.884       9.532       8.405       5.521      5.7797E-02
   8    10.00      10.000       9.999       9.995       9.975       9.884       9.532       8.405       5.521      5.7797E-02
   9    10.00      10.000       9.999       9.995       9.975       9.884       9.532       8.405       5.521      5.7797E-02
  10    10.00      10.000       9.999       9.995       9.975       9.884       9.532       8.405       5.521      5.7797E-02

 HEAD WILL BE SAVED ON UNIT   51 AT END OF TIME STEP   18, STRESS PERIOD    2

 DRAWDOWN WILL BE SAVED ON UNIT   52 AT END OF TIME STEP   18, STRESS PERIOD    2
1
  VOLUMETRIC BUDGET FOR ENTIRE MODEL AT END OF TIME STEP   18, STRESS PERIOD   2
  ------------------------------------------------------------------------------

     CUMULATIVE VOLUMES      L**3       RATES FOR THIS TIME STEP      L**3/T
     ------------------                 ------------------------

           IN:                                      IN:
           ---                                      ---
             STORAGE =      166318.5156               STORAGE =        2889.7554
       CONSTANT HEAD =           0.0000         CONSTANT HEAD =           0.0000
               WELLS =           0.0000                 WELLS =           0.0000
     HEAD DEP BOUNDS =           0.2354       HEAD DEP BOUNDS =       6.9188E-02

            TOTAL IN =      166318.7500              TOTAL IN =        2889.8245

          OUT:                                     OUT:
          ----                                     ----
             STORAGE =           0.0000               STORAGE =           0.0000
       CONSTANT HEAD =           0.0000         CONSTANT HEAD =           0.0000
               WELLS =           0.0000                 WELLS =           0.0000
     HEAD DEP BOUNDS =      166318.7812       HEAD DEP BOUNDS =        2889.8379

           TOTAL OUT =      166318.7812             TOTAL OUT =        2889.8379

            IN - OUT =      -3.1250E-02              IN - OUT =      -1.3428E-02

 PERCENT DISCREPANCY =          -0.00     PERCENT DISCREPANCY =          -0.00






         TIME SUMMARY AT END OF TIME STEP   18 IN STRESS PERIOD    2
                    SECONDS     MINUTES      HOURS       DAYS        YEARS
                    -----------------------------------------------------------
   TIME STEP LENGTH  86400.      1440.0      24.000      1.0000     2.73785E-03
 STRESS PERIOD TIME 1.55520E+06  25920.      432.00      18.000     4.92813E-02
         TOTAL TIME 1.64160E+06  27360.      456.00      19.000     5.20192E-02
1
 
 SOLVING FOR HEAD 

 OUTPUT CONTROL FOR STRESS PERIOD    2   TIME STEP   19
    SAVE HEAD FOR ALL LAYERS
    SAVE DRAWDOWN FOR ALL LAYERS
    SAVE BUDGET
    PRINT HEAD FOR ALL LAYERS
    PRINT BUDGET
 UBDSV1 SAVING "         STORAGE" ON UNIT  53 AT TIME STEP 19, STRESS PERIOD   2
 UBDSV2 SAVING "   CONSTANT HEAD" ON UNIT  53 AT TIME STEP 19, STRESS PERIOD   2
 UBDSV1 SAVING "FLOW RIGHT FACE " ON UNIT  53 AT TIME STEP 19, STRESS PERIOD   2
 UBDSV1 SAVING "FLOW FRONT FACE " ON UNIT  53 AT TIME STEP 19, STRESS PERIOD   2
1
              HEAD IN LAYER   1 AT END OF TIME STEP  19 IN STRESS PERIOD    2
  ---------------------------------------------------------------------------

            1           2           3           4           5           6           7           8           9          10
 ........................................................................................................................
   1    10.00      10.000       9.999       9.994       9.970       9.867       9.486       8.309       5.405      5.6513E-02
   2    10.00      10.000       9.999       9.994       9.970       9.867       9.486       8.309       5.405      5.6513E-02
   3    10.00      10.000       9.999       9.994       9.970       9.867       9.486       8.309       5.405      5.6513E-02
   4    10.00      10.000       9.999       9.994       9.970       9.867       9.486       8.309       5.405      5.6513E-02
   5    10.00      10.000       9.999       9.994       9.970       9.867       9.486       8.309       5.405      5.6513E-02
   6    10.00      10.000       9.999       9.994       9.970       9.867       9.486       8.309       5.405      5.6513E-02
   7    10.00      10.000       9.999       9.994       9.970       9.867       9.486       8.309       5.405      5.6513E-02
   8    10.00      10.000       9.999       9.994       9.970       9.867       9.486       8.309       5.405      5.6513E-02
   9    10.00      10.000       9.999       9.994       9.970       9.867       9.486       8.309       5.405      5.6513E-02
  10    10.00      10.000       9.999       9.994       9.970       9.867       9.486       8.309       5.405      5.6513E-02

 HEAD WILL BE SAVED ON UNIT   51 AT END OF TIME STEP   19, STRESS PERIOD    2

 DRAWDOWN WILL BE SAVED ON UNIT   52 AT END OF TIME STEP   19, STRESS PERIOD    2
1
  VOLUMETRIC BUDGET FOR ENTIRE MODEL AT END OF TIME STEP   19, STRESS PERIOD   2
  ------------------------------------------------------------------------------

     CUMULATIVE VOLUMES      L**3       RATES FOR THIS TIME STEP      L**3/T
     ------------------                 ------------------------

           IN:                                      IN:
           ---                                      ---
             STORAGE =      169144.0781               STORAGE =        2825.5601
       CONSTANT HEAD =           0.0000         CONSTANT HEAD =           0.0000
               WELLS =           0.0000                 WELLS =           0.0000
     HEAD DEP BOUNDS =           0.3271       HEAD DEP BOUNDS =       9.1773E-02

            TOTAL IN =      169144.4062              TOTAL IN =        2825.6519

          OUT:                                     OUT:
          ----                                     ----
             STORAGE =           0.0000               STORAGE =           0.0000
       CONSTANT HEAD =           0.0000         CONSTANT HEAD =           0.0000
               WELLS =           0.0000                 WELLS =           0.0000
     HEAD DEP BOUNDS =      169144.4375       HEAD DEP BOUNDS =        2825.6494

           TOTAL OUT =      169144.4375             TOTAL OUT =        2825.6494

            IN - OUT =      -3.1250E-02              IN - OUT =       2.4414E-03

 PERCENT DISCREPANCY =          -0.00     PERCENT DISCREPANCY =           0.00






         TIME SUMMARY AT END OF TIME STEP   19 IN STRESS PERIOD    2
                    SECONDS     MINUTES      HOURS       DAYS        YEARS
                    -----------------------------------------------------------
   TIME STEP LENGTH  86400.      1440.0      24.000      1.0000     2.73785E-03
 STRESS PERIOD TIME 1.64160E+06  27360.      456.00      19.000     5.20192E-02
         TOTAL TIME 1.72800E+06  28800.      480.00      20.000     5.47570E-02
1
 
 SOLVING FOR HEAD 

 OUTPUT CONTROL FOR STRESS PERIOD    2   TIME STEP   20
    SAVE HEAD FOR ALL LAYERS
    SAVE DRAWDOWN FOR ALL LAYERS
    SAVE BUDGET
    PRINT HEAD FOR ALL LAYERS
    PRINT BUDGET
 UBDSV1 SAVING "         STORAGE" ON UNIT  53 AT TIME STEP 20, STRESS PERIOD   2
 UBDSV2 SAVING "   CONSTANT HEAD" ON UNIT  53 AT TIME STEP 20, STRESS PERIOD   2
 UBDSV1 SAVING "FLOW RIGHT FACE " ON UNIT  53 AT TIME STEP 20, STRESS PERIOD   2
 UBDSV1 SAVING "FLOW FRONT FACE " ON UNIT  53 AT TIME STEP 20, STRESS PERIOD   2
1
              HEAD IN LAYER   1 AT END OF TIME STEP  20 IN STRESS PERIOD    2
  ---------------------------------------------------------------------------

            1           2           3           4           5           6           7           8           9          10
 ........................................................................................................................
   1    10.00      10.000       9.999       9.993       9.965       9.849       9.438       8.215       5.295      5.5304E-02
   2    10.00      10.000       9.999       9.993       9.965       9.849       9.438       8.215       5.295      5.5304E-02
   3    10.00      10.000       9.999       9.993       9.965       9.849       9.438       8.215       5.295      5.5304E-02
   4    10.00      10.000       9.999       9.993       9.965       9.849       9.438       8.215       5.295      5.5304E-02
   5    10.00      10.000       9.999       9.993       9.965       9.849       9.438       8.215       5.295      5.5304E-02
   6    10.00      10.000       9.999       9.993       9.965       9.849       9.438       8.215       5.295      5.5304E-02
   7    10.00      10.000       9.999       9.993       9.965       9.849       9.438       8.215       5.295      5.5304E-02
   8    10.00      10.000       9.999       9.993       9.965       9.849       9.438       8.215       5.295      5.5304E-02
   9    10.00      10.000       9.999       9.993       9.965       9.849       9.438       8.215       5.295      5.5304E-02
  10    10.00      10.000       9.999       9.993       9.965       9.849       9.438       8.215       5.295      5.5304E-02

 HEAD WILL BE SAVED ON UNIT   51 AT END OF TIME STEP   20, STRESS PERIOD    2

 DRAWDOWN WILL BE SAVED ON UNIT   52 AT END OF TIME STEP   20, STRESS PERIOD    2
1
  VOLUMETRIC BUDGET FOR ENTIRE MODEL AT END OF TIME STEP   20, STRESS PERIOD   2
  ------------------------------------------------------------------------------

     CUMULATIVE VOLUMES      L**3       RATES FOR THIS TIME STEP      L**3/T
     ------------------                 ------------------------

           IN:                                      IN:
           ---                                      ---
             STORAGE =      171909.1562               STORAGE =        2765.0842
       CONSTANT HEAD =           0.0000         CONSTANT HEAD =           0.0000
               WELLS =           0.0000                 WELLS =           0.0000
     HEAD DEP BOUNDS =           0.4472       HEAD DEP BOUNDS =           0.1201

            TOTAL IN =      171909.6094              TOTAL IN =        2765.2043

          OUT:                                     OUT:
          ----                                     ----
             STORAGE =           0.0000               STORAGE =           0.0000
       CONSTANT HEAD =           0.0000         CONSTANT HEAD =           0.0000
               WELLS =           0.0000                 WELLS =           0.0000
     HEAD DEP BOUNDS =      171909.6562       HEAD DEP BOUNDS =        2765.2195

           TOTAL OUT =      171909.6562             TOTAL OUT =        2765.2195

            IN - OUT =      -4.6875E-02              IN - OUT =      -1.5137E-02

 PERCENT DISCREPANCY =          -0.00     PERCENT DISCREPANCY =          -0.00






         TIME SUMMARY AT END OF TIME STEP   20 IN STRESS PERIOD    2
                    SECONDS     MINUTES      HOURS       DAYS        YEARS
                    -----------------------------------------------------------
   TIME STEP LENGTH  86400.      1440.0      24.000      1.0000     2.73785E-03
 STRESS PERIOD TIME 1.72800E+06  28800.      480.00      20.000     5.47570E-02
         TOTAL TIME 1.81440E+06  30240.      504.00      21.000     5.74949E-02
1
 
 SOLVING FOR HEAD 

 OUTPUT CONTROL FOR STRESS PERIOD    2   TIME STEP   21
    SAVE HEAD FOR ALL LAYERS
    SAVE DRAWDOWN FOR ALL LAYERS
    SAVE BUDGET
    PRINT HEAD FOR ALL LAYERS
    PRINT BUDGET
 UBDSV1 SAVING "         STORAGE" ON UNIT  53 AT TIME STEP 21, STRESS PERIOD   2
 UBDSV2 SAVING "   CONSTANT HEAD" ON UNIT  53 AT TIME STEP 21, STRESS PERIOD   2
 UBDSV1 SAVING "FLOW RIGHT FACE " ON UNIT  53 AT TIME STEP 21, STRESS PERIOD   2
 UBDSV1 SAVING "FLOW FRONT FACE " ON UNIT  53 AT TIME STEP 21, STRESS PERIOD   2
1
              HEAD IN LAYER   1 AT END OF TIME STEP  21 IN STRESS PERIOD    2
  ---------------------------------------------------------------------------

            1           2           3           4           5           6           7           8           9          10
 ........................................................................................................................
   1    10.00      10.000       9.998       9.991       9.959       9.831       9.390       8.124       5.191      5.4165E-02
   2    10.00      10.000       9.998       9.991       9.959       9.831       9.390       8.124       5.191      5.4165E-02
   3    10.00      10.000       9.998       9.991       9.959       9.831       9.390       8.124       5.191      5.4165E-02
   4    10.00      10.000       9.998       9.991       9.959       9.831       9.390       8.124       5.191      5.4165E-02
   5    10.00      10.000       9.998       9.991       9.959       9.831       9.390       8.124       5.191      5.4165E-02
   6    10.00      10.000       9.998       9.991       9.959       9.831       9.390       8.124       5.191      5.4165E-02
   7    10.00      10.000       9.998       9.991       9.959       9.831       9.390       8.124       5.191      5.4165E-02
   8    10.00      10.000       9.998       9.991       9.959       9.831       9.390       8.124       5.191      5.4165E-02
   9    10.00      10.000       9.998       9.991       9.959       9.831       9.390       8.124       5.191      5.4165E-02
  10    10.00      10.000       9.998       9.991       9.959       9.831       9.390       8.124       5.191      5.4165E-02

 HEAD WILL BE SAVED ON UNIT   51 AT END OF TIME STEP   21, STRESS PERIOD    2

 DRAWDOWN WILL BE SAVED ON UNIT   52 AT END OF TIME STEP   21, STRESS PERIOD    2
1
  VOLUMETRIC BUDGET FOR ENTIRE MODEL AT END OF TIME STEP   21, STRESS PERIOD   2
  ------------------------------------------------------------------------------

     CUMULATIVE VOLUMES      L**3       RATES FOR THIS TIME STEP      L**3/T
     ------------------                 ------------------------

           IN:                                      IN:
           ---                                      ---
             STORAGE =      174617.2188               STORAGE =        2708.0615
       CONSTANT HEAD =           0.0000         CONSTANT HEAD =           0.0000
               WELLS =           0.0000                 WELLS =           0.0000
     HEAD DEP BOUNDS =           0.6016       HEAD DEP BOUNDS =           0.1543

            TOTAL IN =      174617.8281              TOTAL IN =        2708.2158

          OUT:                                     OUT:
          ----                                     ----
             STORAGE =           0.0000               STORAGE =           0.0000
       CONSTANT HEAD =           0.0000         CONSTANT HEAD =           0.0000
               WELLS =           0.0000                 WELLS =           0.0000
     HEAD DEP BOUNDS =      174617.8906       HEAD DEP BOUNDS =        2708.2346

           TOTAL OUT =      174617.8906             TOTAL OUT =        2708.2346

            IN - OUT =      -6.2500E-02              IN - OUT =      -1.8799E-02

 PERCENT DISCREPANCY =          -0.00     PERCENT DISCREPANCY =          -0.00






         TIME SUMMARY AT END OF TIME STEP   21 IN STRESS PERIOD    2
                    SECONDS     MINUTES      HOURS       DAYS        YEARS
                    -----------------------------------------------------------
   TIME STEP LENGTH  86400.      1440.0      24.000      1.0000     2.73785E-03
 STRESS PERIOD TIME 1.81440E+06  30240.      504.00      21.000     5.74949E-02
         TOTAL TIME 1.90080E+06  31680.      528.00      22.000     6.02327E-02
1
 
 SOLVING FOR HEAD 

 OUTPUT CONTROL FOR STRESS PERIOD    2   TIME STEP   22
    SAVE HEAD FOR ALL LAYERS
    SAVE DRAWDOWN FOR ALL LAYERS
    SAVE BUDGET
    PRINT HEAD FOR ALL LAYERS
    PRINT BUDGET
 UBDSV1 SAVING "         STORAGE" ON UNIT  53 AT TIME STEP 22, STRESS PERIOD   2
 UBDSV2 SAVING "   CONSTANT HEAD" ON UNIT  53 AT TIME STEP 22, STRESS PERIOD   2
 UBDSV1 SAVING "FLOW RIGHT FACE " ON UNIT  53 AT TIME STEP 22, STRESS PERIOD   2
 UBDSV1 SAVING "FLOW FRONT FACE " ON UNIT  53 AT TIME STEP 22, STRESS PERIOD   2
1
              HEAD IN LAYER   1 AT END OF TIME STEP  22 IN STRESS PERIOD    2
  ---------------------------------------------------------------------------

            1           2           3           4           5           6           7           8           9          10
 ........................................................................................................................
   1    10.00      10.000       9.998       9.989       9.953       9.811       9.341       8.034       5.093      5.3088E-02
   2    10.00      10.000       9.998       9.989       9.953       9.811       9.341       8.034       5.093      5.3088E-02
   3    10.00      10.000       9.998       9.989       9.953       9.811       9.341       8.034       5.093      5.3088E-02
   4    10.00      10.000       9.998       9.989       9.953       9.811       9.341       8.034       5.093      5.3088E-02
   5    10.00      10.000       9.998       9.989       9.953       9.811       9.341       8.034       5.093      5.3088E-02
   6    10.00      10.000       9.998       9.989       9.953       9.811       9.341       8.034       5.093      5.3088E-02
   7    10.00      10.000       9.998       9.989       9.953       9.811       9.341       8.034       5.093      5.3088E-02
   8    10.00      10.000       9.998       9.989       9.953       9.811       9.341       8.034       5.093      5.3088E-02
   9    10.00      10.000       9.998       9.989       9.953       9.811       9.341       8.034       5.093      5.3088E-02
  10    10.00      10.000       9.998       9.989       9.953       9.811       9.341       8.034       5.093      5.3088E-02

 HEAD WILL BE SAVED ON UNIT   51 AT END OF TIME STEP   22, STRESS PERIOD    2

 DRAWDOWN WILL BE SAVED ON UNIT   52 AT END OF TIME STEP   22, STRESS PERIOD    2
1
  VOLUMETRIC BUDGET FOR ENTIRE MODEL AT END OF TIME STEP   22, STRESS PERIOD   2
  ------------------------------------------------------------------------------

     CUMULATIVE VOLUMES      L**3       RATES FOR THIS TIME STEP      L**3/T
     ------------------                 ------------------------

           IN:                                      IN:
           ---                                      ---
             STORAGE =      177271.3750               STORAGE =        2654.1550
       CONSTANT HEAD =           0.0000         CONSTANT HEAD =           0.0000
               WELLS =           0.0000                 WELLS =           0.0000
     HEAD DEP BOUNDS =           0.7976       HEAD DEP BOUNDS =           0.1960

            TOTAL IN =      177272.1719              TOTAL IN =        2654.3511

          OUT:                                     OUT:
          ----                                     ----
             STORAGE =           0.0000               STORAGE =           0.0000
       CONSTANT HEAD =           0.0000         CONSTANT HEAD =           0.0000
               WELLS =           0.0000                 WELLS =           0.0000
     HEAD DEP BOUNDS =      177272.2812       HEAD DEP BOUNDS =        2654.3928

           TOTAL OUT =      177272.2812             TOTAL OUT =        2654.3928

            IN - OUT =          -0.1094              IN - OUT =      -4.1748E-02

 PERCENT DISCREPANCY =          -0.00     PERCENT DISCREPANCY =          -0.00






         TIME SUMMARY AT END OF TIME STEP   22 IN STRESS PERIOD    2
                    SECONDS     MINUTES      HOURS       DAYS        YEARS
                    -----------------------------------------------------------
   TIME STEP LENGTH  86400.      1440.0      24.000      1.0000     2.73785E-03
 STRESS PERIOD TIME 1.90080E+06  31680.      528.00      22.000     6.02327E-02
         TOTAL TIME 1.98720E+06  33120.      552.00      23.000     6.29706E-02
1
 
 SOLVING FOR HEAD 

 OUTPUT CONTROL FOR STRESS PERIOD    2   TIME STEP   23
    SAVE HEAD FOR ALL LAYERS
    SAVE DRAWDOWN FOR ALL LAYERS
    SAVE BUDGET
    PRINT HEAD FOR ALL LAYERS
    PRINT BUDGET
 UBDSV1 SAVING "         STORAGE" ON UNIT  53 AT TIME STEP 23, STRESS PERIOD   2
 UBDSV2 SAVING "   CONSTANT HEAD" ON UNIT  53 AT TIME STEP 23, STRESS PERIOD   2
 UBDSV1 SAVING "FLOW RIGHT FACE " ON UNIT  53 AT TIME STEP 23, STRESS PERIOD   2
 UBDSV1 SAVING "FLOW FRONT FACE " ON UNIT  53 AT TIME STEP 23, STRESS PERIOD   2
1
              HEAD IN LAYER   1 AT END OF TIME STEP  23 IN STRESS PERIOD    2
  ---------------------------------------------------------------------------

            1           2           3           4           5           6           7           8           9          10
 ........................................................................................................................
   1    10.00      10.000       9.997       9.988       9.946       9.791       9.292       7.947       5.000      5.2069E-02
   2    10.00      10.000       9.997       9.988       9.946       9.791       9.292       7.947       5.000      5.2069E-02
   3    10.00      10.000       9.997       9.988       9.946       9.791       9.292       7.947       5.000      5.2069E-02
   4    10.00      10.000       9.997       9.988       9.946       9.791       9.292       7.947       5.000      5.2069E-02
   5    10.00      10.000       9.997       9.988       9.946       9.791       9.292       7.947       5.000      5.2069E-02
   6    10.00      10.000       9.997       9.988       9.946       9.791       9.292       7.947       5.000      5.2069E-02
   7    10.00      10.000       9.997       9.988       9.946       9.791       9.292       7.947       5.000      5.2069E-02
   8    10.00      10.000       9.997       9.988       9.946       9.791       9.292       7.947       5.000      5.2069E-02
   9    10.00      10.000       9.997       9.988       9.946       9.791       9.292       7.947       5.000      5.2069E-02
  10    10.00      10.000       9.997       9.988       9.946       9.791       9.292       7.947       5.000      5.2069E-02

 HEAD WILL BE SAVED ON UNIT   51 AT END OF TIME STEP   23, STRESS PERIOD    2

 DRAWDOWN WILL BE SAVED ON UNIT   52 AT END OF TIME STEP   23, STRESS PERIOD    2
1
  VOLUMETRIC BUDGET FOR ENTIRE MODEL AT END OF TIME STEP   23, STRESS PERIOD   2
  ------------------------------------------------------------------------------

     CUMULATIVE VOLUMES      L**3       RATES FOR THIS TIME STEP      L**3/T
     ------------------                 ------------------------

           IN:                                      IN:
           ---                                      ---
             STORAGE =      179874.5469               STORAGE =        2603.1775
       CONSTANT HEAD =           0.0000         CONSTANT HEAD =           0.0000
               WELLS =           0.0000                 WELLS =           0.0000
     HEAD DEP BOUNDS =           1.0436       HEAD DEP BOUNDS =           0.2460

            TOTAL IN =      179875.5938              TOTAL IN =        2603.4236

          OUT:                                     OUT:
          ----                                     ----
             STORAGE =           0.0000               STORAGE =           0.0000
       CONSTANT HEAD =           0.0000         CONSTANT HEAD =           0.0000
               WELLS =           0.0000                 WELLS =           0.0000
     HEAD DEP BOUNDS =      179875.7188       HEAD DEP BOUNDS =        2603.4353

           TOTAL OUT =      179875.7188             TOTAL OUT =        2603.4353

            IN - OUT =          -0.1250              IN - OUT =      -1.1719E-02

 PERCENT DISCREPANCY =          -0.00     PERCENT DISCREPANCY =          -0.00






         TIME SUMMARY AT END OF TIME STEP   23 IN STRESS PERIOD    2
                    SECONDS     MINUTES      HOURS       DAYS        YEARS
                    -----------------------------------------------------------
   TIME STEP LENGTH  86400.      1440.0      24.000      1.0000     2.73785E-03
 STRESS PERIOD TIME 1.98720E+06  33120.      552.00      23.000     6.29706E-02
         TOTAL TIME 2.07360E+06  34560.      576.00      24.000     6.57084E-02
1
 
 SOLVING FOR HEAD 

 OUTPUT CONTROL FOR STRESS PERIOD    2   TIME STEP   24
    SAVE HEAD FOR ALL LAYERS
    SAVE DRAWDOWN FOR ALL LAYERS
    SAVE BUDGET
    PRINT HEAD FOR ALL LAYERS
    PRINT BUDGET
 UBDSV1 SAVING "         STORAGE" ON UNIT  53 AT TIME STEP 24, STRESS PERIOD   2
 UBDSV2 SAVING "   CONSTANT HEAD" ON UNIT  53 AT TIME STEP 24, STRESS PERIOD   2
 UBDSV1 SAVING "FLOW RIGHT FACE " ON UNIT  53 AT TIME STEP 24, STRESS PERIOD   2
 UBDSV1 SAVING "FLOW FRONT FACE " ON UNIT  53 AT TIME STEP 24, STRESS PERIOD   2
1
              HEAD IN LAYER   1 AT END OF TIME STEP  24 IN STRESS PERIOD    2
  ---------------------------------------------------------------------------

            1           2           3           4           5           6           7           8           9          10
 ........................................................................................................................
   1    10.00       9.999       9.997       9.985       9.939       9.770       9.243       7.861       4.912      5.1103E-02
   2    10.00       9.999       9.997       9.985       9.939       9.770       9.243       7.861       4.912      5.1103E-02
   3    10.00       9.999       9.997       9.985       9.939       9.770       9.243       7.861       4.912      5.1103E-02
   4    10.00       9.999       9.997       9.985       9.939       9.770       9.243       7.861       4.912      5.1103E-02
   5    10.00       9.999       9.997       9.985       9.939       9.770       9.243       7.861       4.912      5.1103E-02
   6    10.00       9.999       9.997       9.985       9.939       9.770       9.243       7.861       4.912      5.1103E-02
   7    10.00       9.999       9.997       9.985       9.939       9.770       9.243       7.861       4.912      5.1103E-02
   8    10.00       9.999       9.997       9.985       9.939       9.770       9.243       7.861       4.912      5.1103E-02
   9    10.00       9.999       9.997       9.985       9.939       9.770       9.243       7.861       4.912      5.1103E-02
  10    10.00       9.999       9.997       9.985       9.939       9.770       9.243       7.861       4.912      5.1103E-02

 HEAD WILL BE SAVED ON UNIT   51 AT END OF TIME STEP   24, STRESS PERIOD    2

 DRAWDOWN WILL BE SAVED ON UNIT   52 AT END OF TIME STEP   24, STRESS PERIOD    2
1
  VOLUMETRIC BUDGET FOR ENTIRE MODEL AT END OF TIME STEP   24, STRESS PERIOD   2
  ------------------------------------------------------------------------------

     CUMULATIVE VOLUMES      L**3       RATES FOR THIS TIME STEP      L**3/T
     ------------------                 ------------------------

           IN:                                      IN:
           ---                                      ---
             STORAGE =      182429.3125               STORAGE =        2554.7678
       CONSTANT HEAD =           0.0000         CONSTANT HEAD =           0.0000
               WELLS =           0.0000                 WELLS =           0.0000
     HEAD DEP BOUNDS =           1.3487       HEAD DEP BOUNDS =           0.3051

            TOTAL IN =      182430.6562              TOTAL IN =        2555.0730

          OUT:                                     OUT:
          ----                                     ----
             STORAGE =           0.0000               STORAGE =           0.0000
       CONSTANT HEAD =           0.0000         CONSTANT HEAD =           0.0000
               WELLS =           0.0000                 WELLS =           0.0000
     HEAD DEP BOUNDS =      182430.8438       HEAD DEP BOUNDS =        2555.1309

           TOTAL OUT =      182430.8438             TOTAL OUT =        2555.1309

            IN - OUT =          -0.1875              IN - OUT =      -5.7861E-02

 PERCENT DISCREPANCY =          -0.00     PERCENT DISCREPANCY =          -0.00






         TIME SUMMARY AT END OF TIME STEP   24 IN STRESS PERIOD    2
                    SECONDS     MINUTES      HOURS       DAYS        YEARS
                    -----------------------------------------------------------
   TIME STEP LENGTH  86400.      1440.0      24.000      1.0000     2.73785E-03
 STRESS PERIOD TIME 2.07360E+06  34560.      576.00      24.000     6.57084E-02
         TOTAL TIME 2.16000E+06  36000.      600.00      25.000     6.84463E-02
1
 
 SOLVING FOR HEAD 

 OUTPUT CONTROL FOR STRESS PERIOD    2   TIME STEP   25
    SAVE HEAD FOR ALL LAYERS
    SAVE DRAWDOWN FOR ALL LAYERS
    SAVE BUDGET
    PRINT HEAD FOR ALL LAYERS
    PRINT BUDGET
 UBDSV1 SAVING "         STORAGE" ON UNIT  53 AT TIME STEP 25, STRESS PERIOD   2
 UBDSV2 SAVING "   CONSTANT HEAD" ON UNIT  53 AT TIME STEP 25, STRESS PERIOD   2
 UBDSV1 SAVING "FLOW RIGHT FACE " ON UNIT  53 AT TIME STEP 25, STRESS PERIOD   2
 UBDSV1 SAVING "FLOW FRONT FACE " ON UNIT  53 AT TIME STEP 25, STRESS PERIOD   2
1
              HEAD IN LAYER   1 AT END OF TIME STEP  25 IN STRESS PERIOD    2
  ---------------------------------------------------------------------------

            1           2           3           4           5           6           7           8           9          10
 ........................................................................................................................
   1    10.00       9.999       9.996       9.983       9.931       9.748       9.193       7.778       4.828      5.0186E-02
   2    10.00       9.999       9.996       9.983       9.931       9.748       9.193       7.778       4.828      5.0186E-02
   3    10.00       9.999       9.996       9.983       9.931       9.748       9.193       7.778       4.828      5.0186E-02
   4    10.00       9.999       9.996       9.983       9.931       9.748       9.193       7.778       4.828      5.0186E-02
   5    10.00       9.999       9.996       9.983       9.931       9.748       9.193       7.778       4.828      5.0186E-02
   6    10.00       9.999       9.996       9.983       9.931       9.748       9.193       7.778       4.828      5.0186E-02
   7    10.00       9.999       9.996       9.983       9.931       9.748       9.193       7.778       4.828      5.0186E-02
   8    10.00       9.999       9.996       9.983       9.931       9.748       9.193       7.778       4.828      5.0186E-02
   9    10.00       9.999       9.996       9.983       9.931       9.748       9.193       7.778       4.828      5.0186E-02
  10    10.00       9.999       9.996       9.983       9.931       9.748       9.193       7.778       4.828      5.0186E-02

 HEAD WILL BE SAVED ON UNIT   51 AT END OF TIME STEP   25, STRESS PERIOD    2

 DRAWDOWN WILL BE SAVED ON UNIT   52 AT END OF TIME STEP   25, STRESS PERIOD    2
1
  VOLUMETRIC BUDGET FOR ENTIRE MODEL AT END OF TIME STEP   25, STRESS PERIOD   2
  ------------------------------------------------------------------------------

     CUMULATIVE VOLUMES      L**3       RATES FOR THIS TIME STEP      L**3/T
     ------------------                 ------------------------

           IN:                                      IN:
           ---                                      ---
             STORAGE =      184938.1875               STORAGE =        2508.8782
       CONSTANT HEAD =           0.0000         CONSTANT HEAD =           0.0000
               WELLS =           0.0000                 WELLS =           0.0000
     HEAD DEP BOUNDS =           1.7894       HEAD DEP BOUNDS =           0.4407

            TOTAL IN =      184939.9844              TOTAL IN =        2509.3188

          OUT:                                     OUT:
          ----                                     ----
             STORAGE =           0.0000               STORAGE =           0.0000
       CONSTANT HEAD =           0.0000         CONSTANT HEAD =           0.0000
               WELLS =           0.0000                 WELLS =           0.0000
     HEAD DEP BOUNDS =      184940.1250       HEAD DEP BOUNDS =        2509.2786

           TOTAL OUT =      184940.1250             TOTAL OUT =        2509.2786

            IN - OUT =          -0.1406              IN - OUT =       4.0283E-02

 PERCENT DISCREPANCY =          -0.00     PERCENT DISCREPANCY =           0.00






         TIME SUMMARY AT END OF TIME STEP   25 IN STRESS PERIOD    2
                    SECONDS     MINUTES      HOURS       DAYS        YEARS
                    -----------------------------------------------------------
   TIME STEP LENGTH  86400.      1440.0      24.000      1.0000     2.73785E-03
 STRESS PERIOD TIME 2.16000E+06  36000.      600.00      25.000     6.84463E-02
         TOTAL TIME 2.24640E+06  37440.      624.00      26.000     7.11841E-02
1
 
 SOLVING FOR HEAD 

 OUTPUT CONTROL FOR STRESS PERIOD    2   TIME STEP   26
    SAVE HEAD FOR ALL LAYERS
    SAVE DRAWDOWN FOR ALL LAYERS
    SAVE BUDGET
    PRINT HEAD FOR ALL LAYERS
    PRINT BUDGET
 UBDSV1 SAVING "         STORAGE" ON UNIT  53 AT TIME STEP 26, STRESS PERIOD   2
 UBDSV2 SAVING "   CONSTANT HEAD" ON UNIT  53 AT TIME STEP 26, STRESS PERIOD   2
 UBDSV1 SAVING "FLOW RIGHT FACE " ON UNIT  53 AT TIME STEP 26, STRESS PERIOD   2
 UBDSV1 SAVING "FLOW FRONT FACE " ON UNIT  53 AT TIME STEP 26, STRESS PERIOD   2
1
              HEAD IN LAYER   1 AT END OF TIME STEP  26 IN STRESS PERIOD    2
  ---------------------------------------------------------------------------

            1           2           3           4           5           6           7           8           9          10
 ........................................................................................................................
   1    10.00       9.999       9.996       9.981       9.922       9.725       9.143       7.697       4.748      4.9314E-02
   2    10.00       9.999       9.996       9.981       9.922       9.725       9.143       7.697       4.748      4.9314E-02
   3    10.00       9.999       9.996       9.981       9.922       9.725       9.143       7.697       4.748      4.9314E-02
   4    10.00       9.999       9.996       9.981       9.922       9.725       9.143       7.697       4.748      4.9314E-02
   5    10.00       9.999       9.996       9.981       9.922       9.725       9.143       7.697       4.748      4.9314E-02
   6    10.00       9.999       9.996       9.981       9.922       9.725       9.143       7.697       4.748      4.9314E-02
   7    10.00       9.999       9.996       9.981       9.922       9.725       9.143       7.697       4.748      4.9314E-02
   8    10.00       9.999       9.996       9.981       9.922       9.725       9.143       7.697       4.748      4.9314E-02
   9    10.00       9.999       9.996       9.981       9.922       9.725       9.143       7.697       4.748      4.9314E-02
  10    10.00       9.999       9.996       9.981       9.922       9.725       9.143       7.697       4.748      4.9314E-02

 HEAD WILL BE SAVED ON UNIT   51 AT END OF TIME STEP   26, STRESS PERIOD    2

 DRAWDOWN WILL BE SAVED ON UNIT   52 AT END OF TIME STEP   26, STRESS PERIOD    2
1
  VOLUMETRIC BUDGET FOR ENTIRE MODEL AT END OF TIME STEP   26, STRESS PERIOD   2
  ------------------------------------------------------------------------------

     CUMULATIVE VOLUMES      L**3       RATES FOR THIS TIME STEP      L**3/T
     ------------------                 ------------------------

           IN:                                      IN:
           ---                                      ---
             STORAGE =      187403.3594               STORAGE =        2465.1687
       CONSTANT HEAD =           0.0000         CONSTANT HEAD =           0.0000
               WELLS =           0.0000                 WELLS =           0.0000
     HEAD DEP BOUNDS =           2.3112       HEAD DEP BOUNDS =           0.5218

            TOTAL IN =      187405.6719              TOTAL IN =        2465.6904

          OUT:                                     OUT:
          ----                                     ----
             STORAGE =           0.0000               STORAGE =           0.0000
       CONSTANT HEAD =           0.0000         CONSTANT HEAD =           0.0000
               WELLS =           0.0000                 WELLS =           0.0000
     HEAD DEP BOUNDS =      187405.8125       HEAD DEP BOUNDS =        2465.6831

           TOTAL OUT =      187405.8125             TOTAL OUT =        2465.6831

            IN - OUT =          -0.1406              IN - OUT =       7.3242E-03

 PERCENT DISCREPANCY =          -0.00     PERCENT DISCREPANCY =           0.00






         TIME SUMMARY AT END OF TIME STEP   26 IN STRESS PERIOD    2
                    SECONDS     MINUTES      HOURS       DAYS        YEARS
                    -----------------------------------------------------------
   TIME STEP LENGTH  86400.      1440.0      24.000      1.0000     2.73785E-03
 STRESS PERIOD TIME 2.24640E+06  37440.      624.00      26.000     7.11841E-02
         TOTAL TIME 2.33280E+06  38880.      648.00      27.000     7.39220E-02
1
 
 SOLVING FOR HEAD 

 OUTPUT CONTROL FOR STRESS PERIOD    2   TIME STEP   27
    SAVE HEAD FOR ALL LAYERS
    SAVE DRAWDOWN FOR ALL LAYERS
    SAVE BUDGET
    PRINT HEAD FOR ALL LAYERS
    PRINT BUDGET
 UBDSV1 SAVING "         STORAGE" ON UNIT  53 AT TIME STEP 27, STRESS PERIOD   2
 UBDSV2 SAVING "   CONSTANT HEAD" ON UNIT  53 AT TIME STEP 27, STRESS PERIOD   2
 UBDSV1 SAVING "FLOW RIGHT FACE " ON UNIT  53 AT TIME STEP 27, STRESS PERIOD   2
 UBDSV1 SAVING "FLOW FRONT FACE " ON UNIT  53 AT TIME STEP 27, STRESS PERIOD   2
1
              HEAD IN LAYER   1 AT END OF TIME STEP  27 IN STRESS PERIOD    2
  ---------------------------------------------------------------------------

            1           2           3           4           5           6           7           8           9          10
 ........................................................................................................................
   1    10.00       9.999       9.995       9.978       9.914       9.701       9.093       7.618       4.671      4.8483E-02
   2    10.00       9.999       9.995       9.978       9.914       9.701       9.093       7.618       4.671      4.8483E-02
   3    10.00       9.999       9.995       9.978       9.914       9.701       9.093       7.618       4.671      4.8483E-02
   4    10.00       9.999       9.995       9.978       9.914       9.701       9.093       7.618       4.671      4.8483E-02
   5    10.00       9.999       9.995       9.978       9.914       9.701       9.093       7.618       4.671      4.8483E-02
   6    10.00       9.999       9.995       9.978       9.914       9.701       9.093       7.618       4.671      4.8483E-02
   7    10.00       9.999       9.995       9.978       9.914       9.701       9.093       7.618       4.671      4.8483E-02
   8    10.00       9.999       9.995       9.978       9.914       9.701       9.093       7.618       4.671      4.8483E-02
   9    10.00       9.999       9.995       9.978       9.914       9.701       9.093       7.618       4.671      4.8483E-02
  10    10.00       9.999       9.995       9.978       9.914       9.701       9.093       7.618       4.671      4.8483E-02

 HEAD WILL BE SAVED ON UNIT   51 AT END OF TIME STEP   27, STRESS PERIOD    2

 DRAWDOWN WILL BE SAVED ON UNIT   52 AT END OF TIME STEP   27, STRESS PERIOD    2
1
  VOLUMETRIC BUDGET FOR ENTIRE MODEL AT END OF TIME STEP   27, STRESS PERIOD   2
  ------------------------------------------------------------------------------

     CUMULATIVE VOLUMES      L**3       RATES FOR THIS TIME STEP      L**3/T
     ------------------                 ------------------------

           IN:                                      IN:
           ---                                      ---
             STORAGE =      189826.9062               STORAGE =        2423.5417
       CONSTANT HEAD =           0.0000         CONSTANT HEAD =           0.0000
               WELLS =           0.0000                 WELLS =           0.0000
     HEAD DEP BOUNDS =           2.9268       HEAD DEP BOUNDS =           0.6156

            TOTAL IN =      189829.8281              TOTAL IN =        2424.1572

          OUT:                                     OUT:
          ----                                     ----
             STORAGE =           0.0000               STORAGE =           0.0000
       CONSTANT HEAD =           0.0000         CONSTANT HEAD =           0.0000
               WELLS =           0.0000                 WELLS =           0.0000
     HEAD DEP BOUNDS =      189829.9844       HEAD DEP BOUNDS =        2424.1748

           TOTAL OUT =      189829.9844             TOTAL OUT =        2424.1748

            IN - OUT =          -0.1562              IN - OUT =      -1.7578E-02

 PERCENT DISCREPANCY =          -0.00     PERCENT DISCREPANCY =          -0.00






         TIME SUMMARY AT END OF TIME STEP   27 IN STRESS PERIOD    2
                    SECONDS     MINUTES      HOURS       DAYS        YEARS
                    -----------------------------------------------------------
   TIME STEP LENGTH  86400.      1440.0      24.000      1.0000     2.73785E-03
 STRESS PERIOD TIME 2.33280E+06  38880.      648.00      27.000     7.39220E-02
         TOTAL TIME 2.41920E+06  40320.      672.00      28.000     7.66598E-02
1
 
 SOLVING FOR HEAD 

 OUTPUT CONTROL FOR STRESS PERIOD    2   TIME STEP   28
    SAVE HEAD FOR ALL LAYERS
    SAVE DRAWDOWN FOR ALL LAYERS
    SAVE BUDGET
    PRINT HEAD FOR ALL LAYERS
    PRINT BUDGET
 UBDSV1 SAVING "         STORAGE" ON UNIT  53 AT TIME STEP 28, STRESS PERIOD   2
 UBDSV2 SAVING "   CONSTANT HEAD" ON UNIT  53 AT TIME STEP 28, STRESS PERIOD   2
 UBDSV1 SAVING "FLOW RIGHT FACE " ON UNIT  53 AT TIME STEP 28, STRESS PERIOD   2
 UBDSV1 SAVING "FLOW FRONT FACE " ON UNIT  53 AT TIME STEP 28, STRESS PERIOD   2
1
              HEAD IN LAYER   1 AT END OF TIME STEP  28 IN STRESS PERIOD    2
  ---------------------------------------------------------------------------

            1           2           3           4           5           6           7           8           9          10
 ........................................................................................................................
   1    10.00       9.999       9.994       9.975       9.904       9.677       9.043       7.540       4.599      4.7692E-02
   2    10.00       9.999       9.994       9.975       9.904       9.677       9.043       7.540       4.599      4.7692E-02
   3    10.00       9.999       9.994       9.975       9.904       9.677       9.043       7.540       4.599      4.7692E-02
   4    10.00       9.999       9.994       9.975       9.904       9.677       9.043       7.540       4.599      4.7692E-02
   5    10.00       9.999       9.994       9.975       9.904       9.677       9.043       7.540       4.599      4.7692E-02
   6    10.00       9.999       9.994       9.975       9.904       9.677       9.043       7.540       4.599      4.7692E-02
   7    10.00       9.999       9.994       9.975       9.904       9.677       9.043       7.540       4.599      4.7692E-02
   8    10.00       9.999       9.994       9.975       9.904       9.677       9.043       7.540       4.599      4.7692E-02
   9    10.00       9.999       9.994       9.975       9.904       9.677       9.043       7.540       4.599      4.7692E-02
  10    10.00       9.999       9.994       9.975       9.904       9.677       9.043       7.540       4.599      4.7692E-02

 HEAD WILL BE SAVED ON UNIT   51 AT END OF TIME STEP   28, STRESS PERIOD    2

 DRAWDOWN WILL BE SAVED ON UNIT   52 AT END OF TIME STEP   28, STRESS PERIOD    2
1
  VOLUMETRIC BUDGET FOR ENTIRE MODEL AT END OF TIME STEP   28, STRESS PERIOD   2
  ------------------------------------------------------------------------------

     CUMULATIVE VOLUMES      L**3       RATES FOR THIS TIME STEP      L**3/T
     ------------------                 ------------------------

           IN:                                      IN:
           ---                                      ---
             STORAGE =      192210.7500               STORAGE =        2383.8516
       CONSTANT HEAD =           0.0000         CONSTANT HEAD =           0.0000
               WELLS =           0.0000                 WELLS =           0.0000
     HEAD DEP BOUNDS =           3.6497       HEAD DEP BOUNDS =           0.7229

            TOTAL IN =      192214.4062              TOTAL IN =        2384.5745

          OUT:                                     OUT:
          ----                                     ----
             STORAGE =           0.0000               STORAGE =           0.0000
       CONSTANT HEAD =           0.0000         CONSTANT HEAD =           0.0000
               WELLS =           0.0000                 WELLS =           0.0000
     HEAD DEP BOUNDS =      192214.5938       HEAD DEP BOUNDS =        2384.6042

           TOTAL OUT =      192214.5938             TOTAL OUT =        2384.6042

            IN - OUT =          -0.1875              IN - OUT =      -2.9785E-02

 PERCENT DISCREPANCY =          -0.00     PERCENT DISCREPANCY =          -0.00






         TIME SUMMARY AT END OF TIME STEP   28 IN STRESS PERIOD    2
                    SECONDS     MINUTES      HOURS       DAYS        YEARS
                    -----------------------------------------------------------
   TIME STEP LENGTH  86400.      1440.0      24.000      1.0000     2.73785E-03
 STRESS PERIOD TIME 2.41920E+06  40320.      672.00      28.000     7.66598E-02
         TOTAL TIME 2.50560E+06  41760.      696.00      29.000     7.93977E-02
1
 
 SOLVING FOR HEAD 

 OUTPUT CONTROL FOR STRESS PERIOD    2   TIME STEP   29
    SAVE HEAD FOR ALL LAYERS
    SAVE DRAWDOWN FOR ALL LAYERS
    SAVE BUDGET
    PRINT HEAD FOR ALL LAYERS
    PRINT BUDGET
 UBDSV1 SAVING "         STORAGE" ON UNIT  53 AT TIME STEP 29, STRESS PERIOD   2
 UBDSV2 SAVING "   CONSTANT HEAD" ON UNIT  53 AT TIME STEP 29, STRESS PERIOD   2
 UBDSV1 SAVING "FLOW RIGHT FACE " ON UNIT  53 AT TIME STEP 29, STRESS PERIOD   2
 UBDSV1 SAVING "FLOW FRONT FACE " ON UNIT  53 AT TIME STEP 29, STRESS PERIOD   2
1
              HEAD IN LAYER   1 AT END OF TIME STEP  29 IN STRESS PERIOD    2
  ---------------------------------------------------------------------------

            1           2           3           4           5           6           7           8           9          10
 ........................................................................................................................
   1    10.00       9.998       9.993       9.971       9.894       9.653       8.993       7.465       4.529      4.6937E-02
   2    10.00       9.998       9.993       9.971       9.894       9.653       8.993       7.465       4.529      4.6937E-02
   3    10.00       9.998       9.993       9.971       9.894       9.653       8.993       7.465       4.529      4.6937E-02
   4    10.00       9.998       9.993       9.971       9.894       9.653       8.993       7.465       4.529      4.6937E-02
   5    10.00       9.998       9.993       9.971       9.894       9.653       8.993       7.465       4.529      4.6937E-02
   6    10.00       9.998       9.993       9.971       9.894       9.653       8.993       7.465       4.529      4.6937E-02
   7    10.00       9.998       9.993       9.971       9.894       9.653       8.993       7.465       4.529      4.6937E-02
   8    10.00       9.998       9.993       9.971       9.894       9.653       8.993       7.465       4.529      4.6937E-02
   9    10.00       9.998       9.993       9.971       9.894       9.653       8.993       7.465       4.529      4.6937E-02
  10    10.00       9.998       9.993       9.971       9.894       9.653       8.993       7.465       4.529      4.6937E-02

 HEAD WILL BE SAVED ON UNIT   51 AT END OF TIME STEP   29, STRESS PERIOD    2

 DRAWDOWN WILL BE SAVED ON UNIT   52 AT END OF TIME STEP   29, STRESS PERIOD    2
1
  VOLUMETRIC BUDGET FOR ENTIRE MODEL AT END OF TIME STEP   29, STRESS PERIOD   2
  ------------------------------------------------------------------------------

     CUMULATIVE VOLUMES      L**3       RATES FOR THIS TIME STEP      L**3/T
     ------------------                 ------------------------

           IN:                                      IN:
           ---                                      ---
             STORAGE =      194556.7031               STORAGE =        2345.9580
       CONSTANT HEAD =           0.0000         CONSTANT HEAD =           0.0000
               WELLS =           0.0000                 WELLS =           0.0000
     HEAD DEP BOUNDS =           4.5611       HEAD DEP BOUNDS =           0.9114

            TOTAL IN =      194561.2656              TOTAL IN =        2346.8694

          OUT:                                     OUT:
          ----                                     ----
             STORAGE =           0.0000               STORAGE =           0.0000
       CONSTANT HEAD =           0.0000         CONSTANT HEAD =           0.0000
               WELLS =           0.0000                 WELLS =           0.0000
     HEAD DEP BOUNDS =      194561.4219       HEAD DEP BOUNDS =        2346.8340

           TOTAL OUT =      194561.4219             TOTAL OUT =        2346.8340

            IN - OUT =          -0.1562              IN - OUT =       3.5400E-02

 PERCENT DISCREPANCY =          -0.00     PERCENT DISCREPANCY =           0.00






         TIME SUMMARY AT END OF TIME STEP   29 IN STRESS PERIOD    2
                    SECONDS     MINUTES      HOURS       DAYS        YEARS
                    -----------------------------------------------------------
   TIME STEP LENGTH  86400.      1440.0      24.000      1.0000     2.73785E-03
 STRESS PERIOD TIME 2.50560E+06  41760.      696.00      29.000     7.93977E-02
         TOTAL TIME 2.59200E+06  43200.      720.00      30.000     8.21355E-02
1
 
 SOLVING FOR HEAD 

 OUTPUT CONTROL FOR STRESS PERIOD    2   TIME STEP   30
    SAVE HEAD FOR ALL LAYERS
    SAVE DRAWDOWN FOR ALL LAYERS
    SAVE BUDGET
    PRINT HEAD FOR ALL LAYERS
    PRINT BUDGET
 UBDSV1 SAVING "         STORAGE" ON UNIT  53 AT TIME STEP 30, STRESS PERIOD   2
 UBDSV2 SAVING "   CONSTANT HEAD" ON UNIT  53 AT TIME STEP 30, STRESS PERIOD   2
 UBDSV1 SAVING "FLOW RIGHT FACE " ON UNIT  53 AT TIME STEP 30, STRESS PERIOD   2
 UBDSV1 SAVING "FLOW FRONT FACE " ON UNIT  53 AT TIME STEP 30, STRESS PERIOD   2
1
              HEAD IN LAYER   1 AT END OF TIME STEP  30 IN STRESS PERIOD    2
  ---------------------------------------------------------------------------

            1           2           3           4           5           6           7           8           9          10
 ........................................................................................................................
   1    10.00       9.998       9.992       9.968       9.884       9.627       8.944       7.392       4.462      4.6215E-02
   2    10.00       9.998       9.992       9.968       9.884       9.627       8.944       7.392       4.462      4.6215E-02
   3    10.00       9.998       9.992       9.968       9.884       9.627       8.944       7.392       4.462      4.6215E-02
   4    10.00       9.998       9.992       9.968       9.884       9.627       8.944       7.392       4.462      4.6215E-02
   5    10.00       9.998       9.992       9.968       9.884       9.627       8.944       7.392       4.462      4.6215E-02
   6    10.00       9.998       9.992       9.968       9.884       9.627       8.944       7.392       4.462      4.6215E-02
   7    10.00       9.998       9.992       9.968       9.884       9.627       8.944       7.392       4.462      4.6215E-02
   8    10.00       9.998       9.992       9.968       9.884       9.627       8.944       7.392       4.462      4.6215E-02
   9    10.00       9.998       9.992       9.968       9.884       9.627       8.944       7.392       4.462      4.6215E-02
  10    10.00       9.998       9.992       9.968       9.884       9.627       8.944       7.392       4.462      4.6215E-02

 HEAD WILL BE SAVED ON UNIT   51 AT END OF TIME STEP   30, STRESS PERIOD    2

 DRAWDOWN WILL BE SAVED ON UNIT   52 AT END OF TIME STEP   30, STRESS PERIOD    2
1
  VOLUMETRIC BUDGET FOR ENTIRE MODEL AT END OF TIME STEP   30, STRESS PERIOD   2
  ------------------------------------------------------------------------------

     CUMULATIVE VOLUMES      L**3       RATES FOR THIS TIME STEP      L**3/T
     ------------------                 ------------------------

           IN:                                      IN:
           ---                                      ---
             STORAGE =      196866.3750               STORAGE =        2309.6697
       CONSTANT HEAD =           0.0000         CONSTANT HEAD =           0.0000
               WELLS =           0.0000                 WELLS =           0.0000
     HEAD DEP BOUNDS =           5.6107       HEAD DEP BOUNDS =           1.0496

            TOTAL IN =      196871.9844              TOTAL IN =        2310.7192

          OUT:                                     OUT:
          ----                                     ----
             STORAGE =           0.0000               STORAGE =           0.0000
       CONSTANT HEAD =           0.0000         CONSTANT HEAD =           0.0000
               WELLS =           0.0000                 WELLS =           0.0000
     HEAD DEP BOUNDS =      196872.1562       HEAD DEP BOUNDS =        2310.7280

           TOTAL OUT =      196872.1562             TOTAL OUT =        2310.7280

            IN - OUT =          -0.1719              IN - OUT =      -8.7891E-03

 PERCENT DISCREPANCY =          -0.00     PERCENT DISCREPANCY =          -0.00






         TIME SUMMARY AT END OF TIME STEP   30 IN STRESS PERIOD    2
                    SECONDS     MINUTES      HOURS       DAYS        YEARS
                    -----------------------------------------------------------
   TIME STEP LENGTH  86400.      1440.0      24.000      1.0000     2.73785E-03
 STRESS PERIOD TIME 2.59200E+06  43200.      720.00      30.000     8.21355E-02
         TOTAL TIME 2.67840E+06  44640.      744.00      31.000     8.48734E-02
1
 
 SOLVING FOR HEAD 

 OUTPUT CONTROL FOR STRESS PERIOD    2   TIME STEP   31
    SAVE HEAD FOR ALL LAYERS
    SAVE DRAWDOWN FOR ALL LAYERS
    SAVE BUDGET
    PRINT HEAD FOR ALL LAYERS
    PRINT BUDGET
 UBDSV1 SAVING "         STORAGE" ON UNIT  53 AT TIME STEP 31, STRESS PERIOD   2
 UBDSV2 SAVING "   CONSTANT HEAD" ON UNIT  53 AT TIME STEP 31, STRESS PERIOD   2
 UBDSV1 SAVING "FLOW RIGHT FACE " ON UNIT  53 AT TIME STEP 31, STRESS PERIOD   2
 UBDSV1 SAVING "FLOW FRONT FACE " ON UNIT  53 AT TIME STEP 31, STRESS PERIOD   2
1
              HEAD IN LAYER   1 AT END OF TIME STEP  31 IN STRESS PERIOD    2
  ---------------------------------------------------------------------------

            1           2           3           4           5           6           7           8           9          10
 ........................................................................................................................
   1    10.00       9.998       9.991       9.964       9.873       9.602       8.894       7.320       4.399      4.5524E-02
   2    10.00       9.998       9.991       9.964       9.873       9.602       8.894       7.320       4.399      4.5524E-02
   3    10.00       9.998       9.991       9.964       9.873       9.602       8.894       7.320       4.399      4.5524E-02
   4    10.00       9.998       9.991       9.964       9.873       9.602       8.894       7.320       4.399      4.5524E-02
   5    10.00       9.998       9.991       9.964       9.873       9.602       8.894       7.320       4.399      4.5524E-02
   6    10.00       9.998       9.991       9.964       9.873       9.602       8.894       7.320       4.399      4.5524E-02
   7    10.00       9.998       9.991       9.964       9.873       9.602       8.894       7.320       4.399      4.5524E-02
   8    10.00       9.998       9.991       9.964       9.873       9.602       8.894       7.320       4.399      4.5524E-02
   9    10.00       9.998       9.991       9.964       9.873       9.602       8.894       7.320       4.399      4.5524E-02
  10    10.00       9.998       9.991       9.964       9.873       9.602       8.894       7.320       4.399      4.5524E-02

 HEAD WILL BE SAVED ON UNIT   51 AT END OF TIME STEP   31, STRESS PERIOD    2

 DRAWDOWN WILL BE SAVED ON UNIT   52 AT END OF TIME STEP   31, STRESS PERIOD    2
1
  VOLUMETRIC BUDGET FOR ENTIRE MODEL AT END OF TIME STEP   31, STRESS PERIOD   2
  ------------------------------------------------------------------------------

     CUMULATIVE VOLUMES      L**3       RATES FOR THIS TIME STEP      L**3/T
     ------------------                 ------------------------

           IN:                                      IN:
           ---                                      ---
             STORAGE =      199141.3281               STORAGE =        2274.9473
       CONSTANT HEAD =           0.0000         CONSTANT HEAD =           0.0000
               WELLS =           0.0000                 WELLS =           0.0000
     HEAD DEP BOUNDS =           6.8160       HEAD DEP BOUNDS =           1.2053

            TOTAL IN =      199148.1406              TOTAL IN =        2276.1526

          OUT:                                     OUT:
          ----                                     ----
             STORAGE =           0.0000               STORAGE =           0.0000
       CONSTANT HEAD =           0.0000         CONSTANT HEAD =           0.0000
               WELLS =           0.0000                 WELLS =           0.0000
     HEAD DEP BOUNDS =      199148.3281       HEAD DEP BOUNDS =        2276.1780

           TOTAL OUT =      199148.3281             TOTAL OUT =        2276.1780

            IN - OUT =          -0.1875              IN - OUT =      -2.5391E-02

 PERCENT DISCREPANCY =          -0.00     PERCENT DISCREPANCY =          -0.00






         TIME SUMMARY AT END OF TIME STEP   31 IN STRESS PERIOD    2
                    SECONDS     MINUTES      HOURS       DAYS        YEARS
                    -----------------------------------------------------------
   TIME STEP LENGTH  86400.      1440.0      24.000      1.0000     2.73785E-03
 STRESS PERIOD TIME 2.67840E+06  44640.      744.00      31.000     8.48734E-02
         TOTAL TIME 2.76480E+06  46080.      768.00      32.000     8.76112E-02
1
 
 SOLVING FOR HEAD 

 OUTPUT CONTROL FOR STRESS PERIOD    2   TIME STEP   32
    SAVE HEAD FOR ALL LAYERS
    SAVE DRAWDOWN FOR ALL LAYERS
    SAVE BUDGET
    PRINT HEAD FOR ALL LAYERS
    PRINT BUDGET
 UBDSV1 SAVING "         STORAGE" ON UNIT  53 AT TIME STEP 32, STRESS PERIOD   2
 UBDSV2 SAVING "   CONSTANT HEAD" ON UNIT  53 AT TIME STEP 32, STRESS PERIOD   2
 UBDSV1 SAVING "FLOW RIGHT FACE " ON UNIT  53 AT TIME STEP 32, STRESS PERIOD   2
 UBDSV1 SAVING "FLOW FRONT FACE " ON UNIT  53 AT TIME STEP 32, STRESS PERIOD   2
1
              HEAD IN LAYER   1 AT END OF TIME STEP  32 IN STRESS PERIOD    2
  ---------------------------------------------------------------------------

            1           2           3           4           5           6           7           8           9          10
 ........................................................................................................................
   1    10.00       9.998       9.989       9.960       9.862       9.576       8.845       7.250       4.337      4.4862E-02
   2    10.00       9.998       9.989       9.960       9.862       9.576       8.845       7.250       4.337      4.4862E-02
   3    10.00       9.998       9.989       9.960       9.862       9.576       8.845       7.250       4.337      4.4862E-02
   4    10.00       9.998       9.989       9.960       9.862       9.576       8.845       7.250       4.337      4.4862E-02
   5    10.00       9.998       9.989       9.960       9.862       9.576       8.845       7.250       4.337      4.4862E-02
   6    10.00       9.998       9.989       9.960       9.862       9.576       8.845       7.250       4.337      4.4862E-02
   7    10.00       9.998       9.989       9.960       9.862       9.576       8.845       7.250       4.337      4.4862E-02
   8    10.00       9.998       9.989       9.960       9.862       9.576       8.845       7.250       4.337      4.4862E-02
   9    10.00       9.998       9.989       9.960       9.862       9.576       8.845       7.250       4.337      4.4862E-02
  10    10.00       9.998       9.989       9.960       9.862       9.576       8.845       7.250       4.337      4.4862E-02

 HEAD WILL BE SAVED ON UNIT   51 AT END OF TIME STEP   32, STRESS PERIOD    2

 DRAWDOWN WILL BE SAVED ON UNIT   52 AT END OF TIME STEP   32, STRESS PERIOD    2
1
  VOLUMETRIC BUDGET FOR ENTIRE MODEL AT END OF TIME STEP   32, STRESS PERIOD   2
  ------------------------------------------------------------------------------

     CUMULATIVE VOLUMES      L**3       RATES FOR THIS TIME STEP      L**3/T
     ------------------                 ------------------------

           IN:                                      IN:
           ---                                      ---
             STORAGE =      201383.0000               STORAGE =        2241.6733
       CONSTANT HEAD =           0.0000         CONSTANT HEAD =           0.0000
               WELLS =           0.0000                 WELLS =           0.0000
     HEAD DEP BOUNDS =           8.2622       HEAD DEP BOUNDS =           1.4461

            TOTAL IN =      201391.2656              TOTAL IN =        2243.1194

          OUT:                                     OUT:
          ----                                     ----
             STORAGE =           0.0000               STORAGE =           0.0000
       CONSTANT HEAD =           0.0000         CONSTANT HEAD =           0.0000
               WELLS =           0.0000                 WELLS =           0.0000
     HEAD DEP BOUNDS =      201391.4219       HEAD DEP BOUNDS =        2243.0891

           TOTAL OUT =      201391.4219             TOTAL OUT =        2243.0891

            IN - OUT =          -0.1562              IN - OUT =       3.0273E-02

 PERCENT DISCREPANCY =          -0.00     PERCENT DISCREPANCY =           0.00






         TIME SUMMARY AT END OF TIME STEP   32 IN STRESS PERIOD    2
                    SECONDS     MINUTES      HOURS       DAYS        YEARS
                    -----------------------------------------------------------
   TIME STEP LENGTH  86400.      1440.0      24.000      1.0000     2.73785E-03
 STRESS PERIOD TIME 2.76480E+06  46080.      768.00      32.000     8.76112E-02
         TOTAL TIME 2.85120E+06  47520.      792.00      33.000     9.03491E-02
1
 
 SOLVING FOR HEAD 

 OUTPUT CONTROL FOR STRESS PERIOD    2   TIME STEP   33
    SAVE HEAD FOR ALL LAYERS
    SAVE DRAWDOWN FOR ALL LAYERS
    SAVE BUDGET
    PRINT HEAD FOR ALL LAYERS
    PRINT BUDGET
 UBDSV1 SAVING "         STORAGE" ON UNIT  53 AT TIME STEP 33, STRESS PERIOD   2
 UBDSV2 SAVING "   CONSTANT HEAD" ON UNIT  53 AT TIME STEP 33, STRESS PERIOD   2
 UBDSV1 SAVING "FLOW RIGHT FACE " ON UNIT  53 AT TIME STEP 33, STRESS PERIOD   2
 UBDSV1 SAVING "FLOW FRONT FACE " ON UNIT  53 AT TIME STEP 33, STRESS PERIOD   2
1
              HEAD IN LAYER   1 AT END OF TIME STEP  33 IN STRESS PERIOD    2
  ---------------------------------------------------------------------------

            1           2           3           4           5           6           7           8           9          10
 ........................................................................................................................
   1    10.00       9.997       9.988       9.956       9.850       9.549       8.796       7.182       4.278      4.4227E-02
   2    10.00       9.997       9.988       9.956       9.850       9.549       8.796       7.182       4.278      4.4227E-02
   3    10.00       9.997       9.988       9.956       9.850       9.549       8.796       7.182       4.278      4.4227E-02
   4    10.00       9.997       9.988       9.956       9.850       9.549       8.796       7.182       4.278      4.4227E-02
   5    10.00       9.997       9.988       9.956       9.850       9.549       8.796       7.182       4.278      4.4227E-02
   6    10.00       9.997       9.988       9.956       9.850       9.549       8.796       7.182       4.278      4.4227E-02
   7    10.00       9.997       9.988       9.956       9.850       9.549       8.796       7.182       4.278      4.4227E-02
   8    10.00       9.997       9.988       9.956       9.850       9.549       8.796       7.182       4.278      4.4227E-02
   9    10.00       9.997       9.988       9.956       9.850       9.549       8.796       7.182       4.278      4.4227E-02
  10    10.00       9.997       9.988       9.956       9.850       9.549       8.796       7.182       4.278      4.4227E-02

 HEAD WILL BE SAVED ON UNIT   51 AT END OF TIME STEP   33, STRESS PERIOD    2

 DRAWDOWN WILL BE SAVED ON UNIT   52 AT END OF TIME STEP   33, STRESS PERIOD    2
1
  VOLUMETRIC BUDGET FOR ENTIRE MODEL AT END OF TIME STEP   33, STRESS PERIOD   2
  ------------------------------------------------------------------------------

     CUMULATIVE VOLUMES      L**3       RATES FOR THIS TIME STEP      L**3/T
     ------------------                 ------------------------

           IN:                                      IN:
           ---                                      ---
             STORAGE =      203592.7188               STORAGE =        2209.7190
       CONSTANT HEAD =           0.0000         CONSTANT HEAD =           0.0000
               WELLS =           0.0000                 WELLS =           0.0000
     HEAD DEP BOUNDS =           9.9023       HEAD DEP BOUNDS =           1.6401

            TOTAL IN =      203602.6250              TOTAL IN =        2211.3591

          OUT:                                     OUT:
          ----                                     ----
             STORAGE =           0.0000               STORAGE =           0.0000
       CONSTANT HEAD =           0.0000         CONSTANT HEAD =           0.0000
               WELLS =           0.0000                 WELLS =           0.0000
     HEAD DEP BOUNDS =      203602.7812       HEAD DEP BOUNDS =        2211.3523

           TOTAL OUT =      203602.7812             TOTAL OUT =        2211.3523

            IN - OUT =          -0.1562              IN - OUT =       6.8359E-03

 PERCENT DISCREPANCY =          -0.00     PERCENT DISCREPANCY =           0.00






         TIME SUMMARY AT END OF TIME STEP   33 IN STRESS PERIOD    2
                    SECONDS     MINUTES      HOURS       DAYS        YEARS
                    -----------------------------------------------------------
   TIME STEP LENGTH  86400.      1440.0      24.000      1.0000     2.73785E-03
 STRESS PERIOD TIME 2.85120E+06  47520.      792.00      33.000     9.03491E-02
         TOTAL TIME 2.93760E+06  48960.      816.00      34.000     9.30869E-02
1
 
 SOLVING FOR HEAD 

 OUTPUT CONTROL FOR STRESS PERIOD    2   TIME STEP   34
    SAVE HEAD FOR ALL LAYERS
    SAVE DRAWDOWN FOR ALL LAYERS
    SAVE BUDGET
    PRINT HEAD FOR ALL LAYERS
    PRINT BUDGET
 UBDSV1 SAVING "         STORAGE" ON UNIT  53 AT TIME STEP 34, STRESS PERIOD   2
 UBDSV2 SAVING "   CONSTANT HEAD" ON UNIT  53 AT TIME STEP 34, STRESS PERIOD   2
 UBDSV1 SAVING "FLOW RIGHT FACE " ON UNIT  53 AT TIME STEP 34, STRESS PERIOD   2
 UBDSV1 SAVING "FLOW FRONT FACE " ON UNIT  53 AT TIME STEP 34, STRESS PERIOD   2
1
              HEAD IN LAYER   1 AT END OF TIME STEP  34 IN STRESS PERIOD    2
  ---------------------------------------------------------------------------

            1           2           3           4           5           6           7           8           9          10
 ........................................................................................................................
   1    10.00       9.997       9.987       9.951       9.838       9.522       8.747       7.116       4.222      4.3618E-02
   2    10.00       9.997       9.987       9.951       9.838       9.522       8.747       7.116       4.222      4.3618E-02
   3    10.00       9.997       9.987       9.951       9.838       9.522       8.747       7.116       4.222      4.3618E-02
   4    10.00       9.997       9.987       9.951       9.838       9.522       8.747       7.116       4.222      4.3618E-02
   5    10.00       9.997       9.987       9.951       9.838       9.522       8.747       7.116       4.222      4.3618E-02
   6    10.00       9.997       9.987       9.951       9.838       9.522       8.747       7.116       4.222      4.3618E-02
   7    10.00       9.997       9.987       9.951       9.838       9.522       8.747       7.116       4.222      4.3618E-02
   8    10.00       9.997       9.987       9.951       9.838       9.522       8.747       7.116       4.222      4.3618E-02
   9    10.00       9.997       9.987       9.951       9.838       9.522       8.747       7.116       4.222      4.3618E-02
  10    10.00       9.997       9.987       9.951       9.838       9.522       8.747       7.116       4.222      4.3618E-02

 HEAD WILL BE SAVED ON UNIT   51 AT END OF TIME STEP   34, STRESS PERIOD    2

 DRAWDOWN WILL BE SAVED ON UNIT   52 AT END OF TIME STEP   34, STRESS PERIOD    2
1
  VOLUMETRIC BUDGET FOR ENTIRE MODEL AT END OF TIME STEP   34, STRESS PERIOD   2
  ------------------------------------------------------------------------------

     CUMULATIVE VOLUMES      L**3       RATES FOR THIS TIME STEP      L**3/T
     ------------------                 ------------------------

           IN:                                      IN:
           ---                                      ---
             STORAGE =      205771.7188               STORAGE =        2179.0010
       CONSTANT HEAD =           0.0000         CONSTANT HEAD =           0.0000
               WELLS =           0.0000                 WELLS =           0.0000
     HEAD DEP BOUNDS =          11.8238       HEAD DEP BOUNDS =           1.9215

            TOTAL IN =      205783.5469              TOTAL IN =        2180.9226

          OUT:                                     OUT:
          ----                                     ----
             STORAGE =           0.0000               STORAGE =           0.0000
       CONSTANT HEAD =           0.0000         CONSTANT HEAD =           0.0000
               WELLS =           0.0000                 WELLS =           0.0000
     HEAD DEP BOUNDS =      205783.6719       HEAD DEP BOUNDS =        2180.8877

           TOTAL OUT =      205783.6719             TOTAL OUT =        2180.8877

            IN - OUT =          -0.1250              IN - OUT =       3.4912E-02

 PERCENT DISCREPANCY =          -0.00     PERCENT DISCREPANCY =           0.00






         TIME SUMMARY AT END OF TIME STEP   34 IN STRESS PERIOD    2
                    SECONDS     MINUTES      HOURS       DAYS        YEARS
                    -----------------------------------------------------------
   TIME STEP LENGTH  86400.      1440.0      24.000      1.0000     2.73785E-03
 STRESS PERIOD TIME 2.93760E+06  48960.      816.00      34.000     9.30869E-02
         TOTAL TIME 3.02400E+06  50400.      840.00      35.000     9.58248E-02
1
 
 SOLVING FOR HEAD 

 OUTPUT CONTROL FOR STRESS PERIOD    2   TIME STEP   35
    SAVE HEAD FOR ALL LAYERS
    SAVE DRAWDOWN FOR ALL LAYERS
    SAVE BUDGET
    PRINT HEAD FOR ALL LAYERS
    PRINT BUDGET
 UBDSV1 SAVING "         STORAGE" ON UNIT  53 AT TIME STEP 35, STRESS PERIOD   2
 UBDSV2 SAVING "   CONSTANT HEAD" ON UNIT  53 AT TIME STEP 35, STRESS PERIOD   2
 UBDSV1 SAVING "FLOW RIGHT FACE " ON UNIT  53 AT TIME STEP 35, STRESS PERIOD   2
 UBDSV1 SAVING "FLOW FRONT FACE " ON UNIT  53 AT TIME STEP 35, STRESS PERIOD   2
1
              HEAD IN LAYER   1 AT END OF TIME STEP  35 IN STRESS PERIOD    2
  ---------------------------------------------------------------------------

            1           2           3           4           5           6           7           8           9          10
 ........................................................................................................................
   1    10.00       9.996       9.985       9.946       9.826       9.495       8.699       7.051       4.168      4.3032E-02
   2    10.00       9.996       9.985       9.946       9.826       9.495       8.699       7.051       4.168      4.3032E-02
   3    10.00       9.996       9.985       9.946       9.826       9.495       8.699       7.051       4.168      4.3032E-02
   4    10.00       9.996       9.985       9.946       9.826       9.495       8.699       7.051       4.168      4.3032E-02
   5    10.00       9.996       9.985       9.946       9.826       9.495       8.699       7.051       4.168      4.3032E-02
   6    10.00       9.996       9.985       9.946       9.826       9.495       8.699       7.051       4.168      4.3032E-02
   7    10.00       9.996       9.985       9.946       9.826       9.495       8.699       7.051       4.168      4.3032E-02
   8    10.00       9.996       9.985       9.946       9.826       9.495       8.699       7.051       4.168      4.3032E-02
   9    10.00       9.996       9.985       9.946       9.826       9.495       8.699       7.051       4.168      4.3032E-02
  10    10.00       9.996       9.985       9.946       9.826       9.495       8.699       7.051       4.168      4.3032E-02

 HEAD WILL BE SAVED ON UNIT   51 AT END OF TIME STEP   35, STRESS PERIOD    2

 DRAWDOWN WILL BE SAVED ON UNIT   52 AT END OF TIME STEP   35, STRESS PERIOD    2
1
  VOLUMETRIC BUDGET FOR ENTIRE MODEL AT END OF TIME STEP   35, STRESS PERIOD   2
  ------------------------------------------------------------------------------

     CUMULATIVE VOLUMES      L**3       RATES FOR THIS TIME STEP      L**3/T
     ------------------                 ------------------------

           IN:                                      IN:
           ---                                      ---
             STORAGE =      207921.1719               STORAGE =        2149.4526
       CONSTANT HEAD =           0.0000         CONSTANT HEAD =           0.0000
               WELLS =           0.0000                 WELLS =           0.0000
     HEAD DEP BOUNDS =          13.9820       HEAD DEP BOUNDS =           2.1581

            TOTAL IN =      207935.1562              TOTAL IN =        2151.6108

          OUT:                                     OUT:
          ----                                     ----
             STORAGE =           0.0000               STORAGE =           0.0000
       CONSTANT HEAD =           0.0000         CONSTANT HEAD =           0.0000
               WELLS =           0.0000                 WELLS =           0.0000
     HEAD DEP BOUNDS =      207935.2969       HEAD DEP BOUNDS =        2151.6221

           TOTAL OUT =      207935.2969             TOTAL OUT =        2151.6221

            IN - OUT =          -0.1406              IN - OUT =      -1.1230E-02

 PERCENT DISCREPANCY =          -0.00     PERCENT DISCREPANCY =          -0.00






         TIME SUMMARY AT END OF TIME STEP   35 IN STRESS PERIOD    2
                    SECONDS     MINUTES      HOURS       DAYS        YEARS
                    -----------------------------------------------------------
   TIME STEP LENGTH  86400.      1440.0      24.000      1.0000     2.73785E-03
 STRESS PERIOD TIME 3.02400E+06  50400.      840.00      35.000     9.58248E-02
         TOTAL TIME 3.11040E+06  51840.      864.00      36.000     9.85626E-02
1
 
 SOLVING FOR HEAD 

 OUTPUT CONTROL FOR STRESS PERIOD    2   TIME STEP   36
    SAVE HEAD FOR ALL LAYERS
    SAVE DRAWDOWN FOR ALL LAYERS
    SAVE BUDGET
    PRINT HEAD FOR ALL LAYERS
    PRINT BUDGET
 UBDSV1 SAVING "         STORAGE" ON UNIT  53 AT TIME STEP 36, STRESS PERIOD   2
 UBDSV2 SAVING "   CONSTANT HEAD" ON UNIT  53 AT TIME STEP 36, STRESS PERIOD   2
 UBDSV1 SAVING "FLOW RIGHT FACE " ON UNIT  53 AT TIME STEP 36, STRESS PERIOD   2
 UBDSV1 SAVING "FLOW FRONT FACE " ON UNIT  53 AT TIME STEP 36, STRESS PERIOD   2
1
              HEAD IN LAYER   1 AT END OF TIME STEP  36 IN STRESS PERIOD    2
  ---------------------------------------------------------------------------

            1           2           3           4           5           6           7           8           9          10
 ........................................................................................................................
   1    10.00       9.996       9.983       9.941       9.813       9.467       8.651       6.987       4.115      4.2469E-02
   2    10.00       9.996       9.983       9.941       9.813       9.467       8.651       6.987       4.115      4.2469E-02
   3    10.00       9.996       9.983       9.941       9.813       9.467       8.651       6.987       4.115      4.2469E-02
   4    10.00       9.996       9.983       9.941       9.813       9.467       8.651       6.987       4.115      4.2469E-02
   5    10.00       9.996       9.983       9.941       9.813       9.467       8.651       6.987       4.115      4.2469E-02
   6    10.00       9.996       9.983       9.941       9.813       9.467       8.651       6.987       4.115      4.2469E-02
   7    10.00       9.996       9.983       9.941       9.813       9.467       8.651       6.987       4.115      4.2469E-02
   8    10.00       9.996       9.983       9.941       9.813       9.467       8.651       6.987       4.115      4.2469E-02
   9    10.00       9.996       9.983       9.941       9.813       9.467       8.651       6.987       4.115      4.2469E-02
  10    10.00       9.996       9.983       9.941       9.813       9.467       8.651       6.987       4.115      4.2469E-02

 HEAD WILL BE SAVED ON UNIT   51 AT END OF TIME STEP   36, STRESS PERIOD    2

 DRAWDOWN WILL BE SAVED ON UNIT   52 AT END OF TIME STEP   36, STRESS PERIOD    2
1
  VOLUMETRIC BUDGET FOR ENTIRE MODEL AT END OF TIME STEP   36, STRESS PERIOD   2
  ------------------------------------------------------------------------------

     CUMULATIVE VOLUMES      L**3       RATES FOR THIS TIME STEP      L**3/T
     ------------------                 ------------------------

           IN:                                      IN:
           ---                                      ---
             STORAGE =      210042.1719               STORAGE =        2121.0034
       CONSTANT HEAD =           0.0000         CONSTANT HEAD =           0.0000
               WELLS =           0.0000                 WELLS =           0.0000
     HEAD DEP BOUNDS =          16.4666       HEAD DEP BOUNDS =           2.4846

            TOTAL IN =      210058.6406              TOTAL IN =        2123.4880

          OUT:                                     OUT:
          ----                                     ----
             STORAGE =           0.0000               STORAGE =           0.0000
       CONSTANT HEAD =           0.0000         CONSTANT HEAD =           0.0000
               WELLS =           0.0000                 WELLS =           0.0000
     HEAD DEP BOUNDS =      210058.7656       HEAD DEP BOUNDS =        2123.4629

           TOTAL OUT =      210058.7656             TOTAL OUT =        2123.4629

            IN - OUT =          -0.1250              IN - OUT =       2.5146E-02

 PERCENT DISCREPANCY =          -0.00     PERCENT DISCREPANCY =           0.00






         TIME SUMMARY AT END OF TIME STEP   36 IN STRESS PERIOD    2
                    SECONDS     MINUTES      HOURS       DAYS        YEARS
                    -----------------------------------------------------------
   TIME STEP LENGTH  86400.      1440.0      24.000      1.0000     2.73785E-03
 STRESS PERIOD TIME 3.11040E+06  51840.      864.00      36.000     9.85626E-02
         TOTAL TIME 3.19680E+06  53280.      888.00      37.000     0.10130    
1
 
 SOLVING FOR HEAD 

 OUTPUT CONTROL FOR STRESS PERIOD    2   TIME STEP   37
    SAVE HEAD FOR ALL LAYERS
    SAVE DRAWDOWN FOR ALL LAYERS
    SAVE BUDGET
    PRINT HEAD FOR ALL LAYERS
    PRINT BUDGET
 UBDSV1 SAVING "         STORAGE" ON UNIT  53 AT TIME STEP 37, STRESS PERIOD   2
 UBDSV2 SAVING "   CONSTANT HEAD" ON UNIT  53 AT TIME STEP 37, STRESS PERIOD   2
 UBDSV1 SAVING "FLOW RIGHT FACE " ON UNIT  53 AT TIME STEP 37, STRESS PERIOD   2
 UBDSV1 SAVING "FLOW FRONT FACE " ON UNIT  53 AT TIME STEP 37, STRESS PERIOD   2
1
              HEAD IN LAYER   1 AT END OF TIME STEP  37 IN STRESS PERIOD    2
  ---------------------------------------------------------------------------

            1           2           3           4           5           6           7           8           9          10
 ........................................................................................................................
   1    10.00       9.995       9.981       9.935       9.799       9.439       8.603       6.926       4.065      4.1927E-02
   2    10.00       9.995       9.981       9.935       9.799       9.439       8.603       6.926       4.065      4.1927E-02
   3    10.00       9.995       9.981       9.935       9.799       9.439       8.603       6.926       4.065      4.1927E-02
   4    10.00       9.995       9.981       9.935       9.799       9.439       8.603       6.926       4.065      4.1927E-02
   5    10.00       9.995       9.981       9.935       9.799       9.439       8.603       6.926       4.065      4.1927E-02
   6    10.00       9.995       9.981       9.935       9.799       9.439       8.603       6.926       4.065      4.1927E-02
   7    10.00       9.995       9.981       9.935       9.799       9.439       8.603       6.926       4.065      4.1927E-02
   8    10.00       9.995       9.981       9.935       9.799       9.439       8.603       6.926       4.065      4.1927E-02
   9    10.00       9.995       9.981       9.935       9.799       9.439       8.603       6.926       4.065      4.1927E-02
  10    10.00       9.995       9.981       9.935       9.799       9.439       8.603       6.926       4.065      4.1927E-02

 HEAD WILL BE SAVED ON UNIT   51 AT END OF TIME STEP   37, STRESS PERIOD    2

 DRAWDOWN WILL BE SAVED ON UNIT   52 AT END OF TIME STEP   37, STRESS PERIOD    2
1
  VOLUMETRIC BUDGET FOR ENTIRE MODEL AT END OF TIME STEP   37, STRESS PERIOD   2
  ------------------------------------------------------------------------------

     CUMULATIVE VOLUMES      L**3       RATES FOR THIS TIME STEP      L**3/T
     ------------------                 ------------------------

           IN:                                      IN:
           ---                                      ---
             STORAGE =      212135.7344               STORAGE =        2093.5574
       CONSTANT HEAD =           0.0000         CONSTANT HEAD =           0.0000
               WELLS =           0.0000                 WELLS =           0.0000
     HEAD DEP BOUNDS =          19.2353       HEAD DEP BOUNDS =           2.7687

            TOTAL IN =      212154.9688              TOTAL IN =        2096.3262

          OUT:                                     OUT:
          ----                                     ----
             STORAGE =           0.0000               STORAGE =           0.0000
       CONSTANT HEAD =           0.0000         CONSTANT HEAD =           0.0000
               WELLS =           0.0000                 WELLS =           0.0000
     HEAD DEP BOUNDS =      212155.1250       HEAD DEP BOUNDS =        2096.3552

           TOTAL OUT =      212155.1250             TOTAL OUT =        2096.3552

            IN - OUT =          -0.1562              IN - OUT =      -2.9053E-02

 PERCENT DISCREPANCY =          -0.00     PERCENT DISCREPANCY =          -0.00






         TIME SUMMARY AT END OF TIME STEP   37 IN STRESS PERIOD    2
                    SECONDS     MINUTES      HOURS       DAYS        YEARS
                    -----------------------------------------------------------
   TIME STEP LENGTH  86400.      1440.0      24.000      1.0000     2.73785E-03
 STRESS PERIOD TIME 3.19680E+06  53280.      888.00      37.000     0.10130    
         TOTAL TIME 3.28320E+06  54720.      912.00      38.000     0.10404    
1
 
 SOLVING FOR HEAD 

 OUTPUT CONTROL FOR STRESS PERIOD    2   TIME STEP   38
    SAVE HEAD FOR ALL LAYERS
    SAVE DRAWDOWN FOR ALL LAYERS
    SAVE BUDGET
    PRINT HEAD FOR ALL LAYERS
    PRINT BUDGET
 UBDSV1 SAVING "         STORAGE" ON UNIT  53 AT TIME STEP 38, STRESS PERIOD   2
 UBDSV2 SAVING "   CONSTANT HEAD" ON UNIT  53 AT TIME STEP 38, STRESS PERIOD   2
 UBDSV1 SAVING "FLOW RIGHT FACE " ON UNIT  53 AT TIME STEP 38, STRESS PERIOD   2
 UBDSV1 SAVING "FLOW FRONT FACE " ON UNIT  53 AT TIME STEP 38, STRESS PERIOD   2
1
              HEAD IN LAYER   1 AT END OF TIME STEP  38 IN STRESS PERIOD    2
  ---------------------------------------------------------------------------

            1           2           3           4           5           6           7           8           9          10
 ........................................................................................................................
   1   10.000       9.995       9.979       9.930       9.786       9.411       8.556       6.865       4.016      4.1405E-02
   2   10.000       9.995       9.979       9.930       9.786       9.411       8.556       6.865       4.016      4.1405E-02
   3   10.000       9.995       9.979       9.930       9.786       9.411       8.556       6.865       4.016      4.1405E-02
   4   10.000       9.995       9.979       9.930       9.786       9.411       8.556       6.865       4.016      4.1405E-02
   5   10.000       9.995       9.979       9.930       9.786       9.411       8.556       6.865       4.016      4.1405E-02
   6   10.000       9.995       9.979       9.930       9.786       9.411       8.556       6.865       4.016      4.1405E-02
   7   10.000       9.995       9.979       9.930       9.786       9.411       8.556       6.865       4.016      4.1405E-02
   8   10.000       9.995       9.979       9.930       9.786       9.411       8.556       6.865       4.016      4.1405E-02
   9   10.000       9.995       9.979       9.930       9.786       9.411       8.556       6.865       4.016      4.1405E-02
  10   10.000       9.995       9.979       9.930       9.786       9.411       8.556       6.865       4.016      4.1405E-02

 HEAD WILL BE SAVED ON UNIT   51 AT END OF TIME STEP   38, STRESS PERIOD    2

 DRAWDOWN WILL BE SAVED ON UNIT   52 AT END OF TIME STEP   38, STRESS PERIOD    2
1
  VOLUMETRIC BUDGET FOR ENTIRE MODEL AT END OF TIME STEP   38, STRESS PERIOD   2
  ------------------------------------------------------------------------------

     CUMULATIVE VOLUMES      L**3       RATES FOR THIS TIME STEP      L**3/T
     ------------------                 ------------------------

           IN:                                      IN:
           ---                                      ---
             STORAGE =      214202.8750               STORAGE =        2067.1370
       CONSTANT HEAD =           0.0000         CONSTANT HEAD =           0.0000
               WELLS =           0.0000                 WELLS =           0.0000
     HEAD DEP BOUNDS =          22.3799       HEAD DEP BOUNDS =           3.1446

            TOTAL IN =      214225.2500              TOTAL IN =        2070.2815

          OUT:                                     OUT:
          ----                                     ----
             STORAGE =           0.0000               STORAGE =           0.0000
       CONSTANT HEAD =           0.0000         CONSTANT HEAD =           0.0000
               WELLS =           0.0000                 WELLS =           0.0000
     HEAD DEP BOUNDS =      214225.3750       HEAD DEP BOUNDS =        2070.2480

           TOTAL OUT =      214225.3750             TOTAL OUT =        2070.2480

            IN - OUT =          -0.1250              IN - OUT =       3.3447E-02

 PERCENT DISCREPANCY =          -0.00     PERCENT DISCREPANCY =           0.00






         TIME SUMMARY AT END OF TIME STEP   38 IN STRESS PERIOD    2
                    SECONDS     MINUTES      HOURS       DAYS        YEARS
                    -----------------------------------------------------------
   TIME STEP LENGTH  86400.      1440.0      24.000      1.0000     2.73785E-03
 STRESS PERIOD TIME 3.28320E+06  54720.      912.00      38.000     0.10404    
         TOTAL TIME 3.36960E+06  56160.      936.00      39.000     0.10678    
1
 
 SOLVING FOR HEAD 

 OUTPUT CONTROL FOR STRESS PERIOD    2   TIME STEP   39
    SAVE HEAD FOR ALL LAYERS
    SAVE DRAWDOWN FOR ALL LAYERS
    SAVE BUDGET
    PRINT HEAD FOR ALL LAYERS
    PRINT BUDGET
 UBDSV1 SAVING "         STORAGE" ON UNIT  53 AT TIME STEP 39, STRESS PERIOD   2
 UBDSV2 SAVING "   CONSTANT HEAD" ON UNIT  53 AT TIME STEP 39, STRESS PERIOD   2
 UBDSV1 SAVING "FLOW RIGHT FACE " ON UNIT  53 AT TIME STEP 39, STRESS PERIOD   2
 UBDSV1 SAVING "FLOW FRONT FACE " ON UNIT  53 AT TIME STEP 39, STRESS PERIOD   2
1
              HEAD IN LAYER   1 AT END OF TIME STEP  39 IN STRESS PERIOD    2
  ---------------------------------------------------------------------------

            1           2           3           4           5           6           7           8           9          10
 ........................................................................................................................
   1   10.000       9.994       9.977       9.924       9.772       9.383       8.510       6.806       3.969      4.0901E-02
   2   10.000       9.994       9.977       9.924       9.772       9.383       8.510       6.806       3.969      4.0901E-02
   3   10.000       9.994       9.977       9.924       9.772       9.383       8.510       6.806       3.969      4.0901E-02
   4   10.000       9.994       9.977       9.924       9.772       9.383       8.510       6.806       3.969      4.0901E-02
   5   10.000       9.994       9.977       9.924       9.772       9.383       8.510       6.806       3.969      4.0901E-02
   6   10.000       9.994       9.977       9.924       9.772       9.383       8.510       6.806       3.969      4.0901E-02
   7   10.000       9.994       9.977       9.924       9.772       9.383       8.510       6.806       3.969      4.0901E-02
   8   10.000       9.994       9.977       9.924       9.772       9.383       8.510       6.806       3.969      4.0901E-02
   9   10.000       9.994       9.977       9.924       9.772       9.383       8.510       6.806       3.969      4.0901E-02
  10   10.000       9.994       9.977       9.924       9.772       9.383       8.510       6.806       3.969      4.0901E-02

 HEAD WILL BE SAVED ON UNIT   51 AT END OF TIME STEP   39, STRESS PERIOD    2

 DRAWDOWN WILL BE SAVED ON UNIT   52 AT END OF TIME STEP   39, STRESS PERIOD    2
1
  VOLUMETRIC BUDGET FOR ENTIRE MODEL AT END OF TIME STEP   39, STRESS PERIOD   2
  ------------------------------------------------------------------------------

     CUMULATIVE VOLUMES      L**3       RATES FOR THIS TIME STEP      L**3/T
     ------------------                 ------------------------

           IN:                                      IN:
           ---                                      ---
             STORAGE =      216244.3906               STORAGE =        2041.5182
       CONSTANT HEAD =           0.0000         CONSTANT HEAD =           0.0000
               WELLS =           0.0000                 WELLS =           0.0000
     HEAD DEP BOUNDS =          25.9268       HEAD DEP BOUNDS =           3.5469

            TOTAL IN =      216270.3125              TOTAL IN =        2045.0651

          OUT:                                     OUT:
          ----                                     ----
             STORAGE =           0.0000               STORAGE =           0.0000
       CONSTANT HEAD =           0.0000         CONSTANT HEAD =           0.0000
               WELLS =           0.0000                 WELLS =           0.0000
     HEAD DEP BOUNDS =      216270.4375       HEAD DEP BOUNDS =        2045.0548

           TOTAL OUT =      216270.4375             TOTAL OUT =        2045.0548

            IN - OUT =          -0.1250              IN - OUT =       1.0254E-02

 PERCENT DISCREPANCY =          -0.00     PERCENT DISCREPANCY =           0.00






         TIME SUMMARY AT END OF TIME STEP   39 IN STRESS PERIOD    2
                    SECONDS     MINUTES      HOURS       DAYS        YEARS
                    -----------------------------------------------------------
   TIME STEP LENGTH  86400.      1440.0      24.000      1.0000     2.73785E-03
 STRESS PERIOD TIME 3.36960E+06  56160.      936.00      39.000     0.10678    
         TOTAL TIME 3.45600E+06  57600.      960.00      40.000     0.10951    
1
 
 SOLVING FOR HEAD 

 OUTPUT CONTROL FOR STRESS PERIOD    2   TIME STEP   40
    SAVE HEAD FOR ALL LAYERS
    SAVE DRAWDOWN FOR ALL LAYERS
    SAVE BUDGET
    PRINT HEAD FOR ALL LAYERS
    PRINT BUDGET
 UBDSV1 SAVING "         STORAGE" ON UNIT  53 AT TIME STEP 40, STRESS PERIOD   2
 UBDSV2 SAVING "   CONSTANT HEAD" ON UNIT  53 AT TIME STEP 40, STRESS PERIOD   2
 UBDSV1 SAVING "FLOW RIGHT FACE " ON UNIT  53 AT TIME STEP 40, STRESS PERIOD   2
 UBDSV1 SAVING "FLOW FRONT FACE " ON UNIT  53 AT TIME STEP 40, STRESS PERIOD   2
1
              HEAD IN LAYER   1 AT END OF TIME STEP  40 IN STRESS PERIOD    2
  ---------------------------------------------------------------------------

            1           2           3           4           5           6           7           8           9          10
 ........................................................................................................................
   1   10.000       9.993       9.975       9.918       9.757       9.354       8.463       6.749       3.924      4.0415E-02
   2   10.000       9.993       9.975       9.918       9.757       9.354       8.463       6.749       3.924      4.0415E-02
   3   10.000       9.993       9.975       9.918       9.757       9.354       8.463       6.749       3.924      4.0415E-02
   4   10.000       9.993       9.975       9.918       9.757       9.354       8.463       6.749       3.924      4.0415E-02
   5   10.000       9.993       9.975       9.918       9.757       9.354       8.463       6.749       3.924      4.0415E-02
   6   10.000       9.993       9.975       9.918       9.757       9.354       8.463       6.749       3.924      4.0415E-02
   7   10.000       9.993       9.975       9.918       9.757       9.354       8.463       6.749       3.924      4.0415E-02
   8   10.000       9.993       9.975       9.918       9.757       9.354       8.463       6.749       3.924      4.0415E-02
   9   10.000       9.993       9.975       9.918       9.757       9.354       8.463       6.749       3.924      4.0415E-02
  10   10.000       9.993       9.975       9.918       9.757       9.354       8.463       6.749       3.924      4.0415E-02

 HEAD WILL BE SAVED ON UNIT   51 AT END OF TIME STEP   40, STRESS PERIOD    2

 DRAWDOWN WILL BE SAVED ON UNIT   52 AT END OF TIME STEP   40, STRESS PERIOD    2
1
  VOLUMETRIC BUDGET FOR ENTIRE MODEL AT END OF TIME STEP   40, STRESS PERIOD   2
  ------------------------------------------------------------------------------

     CUMULATIVE VOLUMES      L**3       RATES FOR THIS TIME STEP      L**3/T
     ------------------                 ------------------------

           IN:                                      IN:
           ---                                      ---
             STORAGE =      218261.2031               STORAGE =        2016.8140
       CONSTANT HEAD =           0.0000         CONSTANT HEAD =           0.0000
               WELLS =           0.0000                 WELLS =           0.0000
     HEAD DEP BOUNDS =          29.9024       HEAD DEP BOUNDS =           3.9755

            TOTAL IN =      218291.1094              TOTAL IN =        2020.7896

          OUT:                                     OUT:
          ----                                     ----
             STORAGE =           0.0000               STORAGE =           0.0000
       CONSTANT HEAD =           0.0000         CONSTANT HEAD =           0.0000
               WELLS =           0.0000                 WELLS =           0.0000
     HEAD DEP BOUNDS =      218291.1875       HEAD DEP BOUNDS =        2020.7559

           TOTAL OUT =      218291.1875             TOTAL OUT =        2020.7559

            IN - OUT =      -7.8125E-02              IN - OUT =       3.3691E-02

 PERCENT DISCREPANCY =          -0.00     PERCENT DISCREPANCY =           0.00






         TIME SUMMARY AT END OF TIME STEP   40 IN STRESS PERIOD    2
                    SECONDS     MINUTES      HOURS       DAYS        YEARS
                    -----------------------------------------------------------
   TIME STEP LENGTH  86400.      1440.0      24.000      1.0000     2.73785E-03
 STRESS PERIOD TIME 3.45600E+06  57600.      960.00      40.000     0.10951    
         TOTAL TIME 3.54240E+06  59040.      984.00      41.000     0.11225    
1
 
 SOLVING FOR HEAD 

 OUTPUT CONTROL FOR STRESS PERIOD    2   TIME STEP   41
    SAVE HEAD FOR ALL LAYERS
    SAVE DRAWDOWN FOR ALL LAYERS
    SAVE BUDGET
    PRINT HEAD FOR ALL LAYERS
    PRINT BUDGET
 UBDSV1 SAVING "         STORAGE" ON UNIT  53 AT TIME STEP 41, STRESS PERIOD   2
 UBDSV2 SAVING "   CONSTANT HEAD" ON UNIT  53 AT TIME STEP 41, STRESS PERIOD   2
 UBDSV1 SAVING "FLOW RIGHT FACE " ON UNIT  53 AT TIME STEP 41, STRESS PERIOD   2
 UBDSV1 SAVING "FLOW FRONT FACE " ON UNIT  53 AT TIME STEP 41, STRESS PERIOD   2
1
              HEAD IN LAYER   1 AT END OF TIME STEP  41 IN STRESS PERIOD    2
  ---------------------------------------------------------------------------

            1           2           3           4           5           6           7           8           9          10
 ........................................................................................................................
   1   10.000       9.992       9.972       9.911       9.743       9.326       8.417       6.693       3.880      3.9946E-02
   2   10.000       9.992       9.972       9.911       9.743       9.326       8.417       6.693       3.880      3.9946E-02
   3   10.000       9.992       9.972       9.911       9.743       9.326       8.417       6.693       3.880      3.9946E-02
   4   10.000       9.992       9.972       9.911       9.743       9.326       8.417       6.693       3.880      3.9946E-02
   5   10.000       9.992       9.972       9.911       9.743       9.326       8.417       6.693       3.880      3.9946E-02
   6   10.000       9.992       9.972       9.911       9.743       9.326       8.417       6.693       3.880      3.9946E-02
   7   10.000       9.992       9.972       9.911       9.743       9.326       8.417       6.693       3.880      3.9946E-02
   8   10.000       9.992       9.972       9.911       9.743       9.326       8.417       6.693       3.880      3.9946E-02
   9   10.000       9.992       9.972       9.911       9.743       9.326       8.417       6.693       3.880      3.9946E-02
  10   10.000       9.992       9.972       9.911       9.743       9.326       8.417       6.693       3.880      3.9946E-02

 HEAD WILL BE SAVED ON UNIT   51 AT END OF TIME STEP   41, STRESS PERIOD    2

 DRAWDOWN WILL BE SAVED ON UNIT   52 AT END OF TIME STEP   41, STRESS PERIOD    2
1
  VOLUMETRIC BUDGET FOR ENTIRE MODEL AT END OF TIME STEP   41, STRESS PERIOD   2
  ------------------------------------------------------------------------------

     CUMULATIVE VOLUMES      L**3       RATES FOR THIS TIME STEP      L**3/T
     ------------------                 ------------------------

           IN:                                      IN:
           ---                                      ---
             STORAGE =      220254.0781               STORAGE =        1992.8726
       CONSTANT HEAD =           0.0000         CONSTANT HEAD =           0.0000
               WELLS =           0.0000                 WELLS =           0.0000
     HEAD DEP BOUNDS =          34.2684       HEAD DEP BOUNDS =           4.3660

            TOTAL IN =      220288.3438              TOTAL IN =        1997.2385

          OUT:                                     OUT:
          ----                                     ----
             STORAGE =           0.0000               STORAGE =           0.0000
       CONSTANT HEAD =           0.0000         CONSTANT HEAD =           0.0000
               WELLS =           0.0000                 WELLS =           0.0000
     HEAD DEP BOUNDS =      220288.4688       HEAD DEP BOUNDS =        1997.2788

           TOTAL OUT =      220288.4688             TOTAL OUT =        1997.2788

            IN - OUT =          -0.1250              IN - OUT =      -4.0283E-02

 PERCENT DISCREPANCY =          -0.00     PERCENT DISCREPANCY =          -0.00






         TIME SUMMARY AT END OF TIME STEP   41 IN STRESS PERIOD    2
                    SECONDS     MINUTES      HOURS       DAYS        YEARS
                    -----------------------------------------------------------
   TIME STEP LENGTH  86400.      1440.0      24.000      1.0000     2.73785E-03
 STRESS PERIOD TIME 3.54240E+06  59040.      984.00      41.000     0.11225    
         TOTAL TIME 3.62880E+06  60480.      1008.0      42.000     0.11499    
1
 
 SOLVING FOR HEAD 

 OUTPUT CONTROL FOR STRESS PERIOD    2   TIME STEP   42
    SAVE HEAD FOR ALL LAYERS
    SAVE DRAWDOWN FOR ALL LAYERS
    SAVE BUDGET
    PRINT HEAD FOR ALL LAYERS
    PRINT BUDGET
 UBDSV1 SAVING "         STORAGE" ON UNIT  53 AT TIME STEP 42, STRESS PERIOD   2
 UBDSV2 SAVING "   CONSTANT HEAD" ON UNIT  53 AT TIME STEP 42, STRESS PERIOD   2
 UBDSV1 SAVING "FLOW RIGHT FACE " ON UNIT  53 AT TIME STEP 42, STRESS PERIOD   2
 UBDSV1 SAVING "FLOW FRONT FACE " ON UNIT  53 AT TIME STEP 42, STRESS PERIOD   2
1
              HEAD IN LAYER   1 AT END OF TIME STEP  42 IN STRESS PERIOD    2
  ---------------------------------------------------------------------------

            1           2           3           4           5           6           7           8           9          10
 ........................................................................................................................
   1   10.000       9.992       9.970       9.905       9.728       9.297       8.372       6.638       3.838      3.9492E-02
   2   10.000       9.992       9.970       9.905       9.728       9.297       8.372       6.638       3.838      3.9492E-02
   3   10.000       9.992       9.970       9.905       9.728       9.297       8.372       6.638       3.838      3.9492E-02
   4   10.000       9.992       9.970       9.905       9.728       9.297       8.372       6.638       3.838      3.9492E-02
   5   10.000       9.992       9.970       9.905       9.728       9.297       8.372       6.638       3.838      3.9492E-02
   6   10.000       9.992       9.970       9.905       9.728       9.297       8.372       6.638       3.838      3.9492E-02
   7   10.000       9.992       9.970       9.905       9.728       9.297       8.372       6.638       3.838      3.9492E-02
   8   10.000       9.992       9.970       9.905       9.728       9.297       8.372       6.638       3.838      3.9492E-02
   9   10.000       9.992       9.970       9.905       9.728       9.297       8.372       6.638       3.838      3.9492E-02
  10   10.000       9.992       9.970       9.905       9.728       9.297       8.372       6.638       3.838      3.9492E-02

 HEAD WILL BE SAVED ON UNIT   51 AT END OF TIME STEP   42, STRESS PERIOD    2

 DRAWDOWN WILL BE SAVED ON UNIT   52 AT END OF TIME STEP   42, STRESS PERIOD    2
1
  VOLUMETRIC BUDGET FOR ENTIRE MODEL AT END OF TIME STEP   42, STRESS PERIOD   2
  ------------------------------------------------------------------------------

     CUMULATIVE VOLUMES      L**3       RATES FOR THIS TIME STEP      L**3/T
     ------------------                 ------------------------

           IN:                                      IN:
           ---                                      ---
             STORAGE =      222223.7969               STORAGE =        1969.7208
       CONSTANT HEAD =           0.0000         CONSTANT HEAD =           0.0000
               WELLS =           0.0000                 WELLS =           0.0000
     HEAD DEP BOUNDS =          39.1200       HEAD DEP BOUNDS =           4.8517

            TOTAL IN =      222262.9219              TOTAL IN =        1974.5725

          OUT:                                     OUT:
          ----                                     ----
             STORAGE =           0.0000               STORAGE =           0.0000
       CONSTANT HEAD =           0.0000         CONSTANT HEAD =           0.0000
               WELLS =           0.0000                 WELLS =           0.0000
     HEAD DEP BOUNDS =      222263.0625       HEAD DEP BOUNDS =        1974.5870

           TOTAL OUT =      222263.0625             TOTAL OUT =        1974.5870

            IN - OUT =          -0.1406              IN - OUT =      -1.4526E-02

 PERCENT DISCREPANCY =          -0.00     PERCENT DISCREPANCY =          -0.00






         TIME SUMMARY AT END OF TIME STEP   42 IN STRESS PERIOD    2
                    SECONDS     MINUTES      HOURS       DAYS        YEARS
                    -----------------------------------------------------------
   TIME STEP LENGTH  86400.      1440.0      24.000      1.0000     2.73785E-03
 STRESS PERIOD TIME 3.62880E+06  60480.      1008.0      42.000     0.11499    
         TOTAL TIME 3.71520E+06  61920.      1032.0      43.000     0.11773    
1
 
 SOLVING FOR HEAD 

 OUTPUT CONTROL FOR STRESS PERIOD    2   TIME STEP   43
    SAVE HEAD FOR ALL LAYERS
    SAVE DRAWDOWN FOR ALL LAYERS
    SAVE BUDGET
    PRINT HEAD FOR ALL LAYERS
    PRINT BUDGET
 UBDSV1 SAVING "         STORAGE" ON UNIT  53 AT TIME STEP 43, STRESS PERIOD   2
 UBDSV2 SAVING "   CONSTANT HEAD" ON UNIT  53 AT TIME STEP 43, STRESS PERIOD   2
 UBDSV1 SAVING "FLOW RIGHT FACE " ON UNIT  53 AT TIME STEP 43, STRESS PERIOD   2
 UBDSV1 SAVING "FLOW FRONT FACE " ON UNIT  53 AT TIME STEP 43, STRESS PERIOD   2
1
              HEAD IN LAYER   1 AT END OF TIME STEP  43 IN STRESS PERIOD    2
  ---------------------------------------------------------------------------

            1           2           3           4           5           6           7           8           9          10
 ........................................................................................................................
   1   10.000       9.991       9.967       9.898       9.712       9.268       8.327       6.584       3.797      3.9053E-02
   2   10.000       9.991       9.967       9.898       9.712       9.268       8.327       6.584       3.797      3.9053E-02
   3   10.000       9.991       9.967       9.898       9.712       9.268       8.327       6.584       3.797      3.9053E-02
   4   10.000       9.991       9.967       9.898       9.712       9.268       8.327       6.584       3.797      3.9053E-02
   5   10.000       9.991       9.967       9.898       9.712       9.268       8.327       6.584       3.797      3.9053E-02
   6   10.000       9.991       9.967       9.898       9.712       9.268       8.327       6.584       3.797      3.9053E-02
   7   10.000       9.991       9.967       9.898       9.712       9.268       8.327       6.584       3.797      3.9053E-02
   8   10.000       9.991       9.967       9.898       9.712       9.268       8.327       6.584       3.797      3.9053E-02
   9   10.000       9.991       9.967       9.898       9.712       9.268       8.327       6.584       3.797      3.9053E-02
  10   10.000       9.991       9.967       9.898       9.712       9.268       8.327       6.584       3.797      3.9053E-02

 HEAD WILL BE SAVED ON UNIT   51 AT END OF TIME STEP   43, STRESS PERIOD    2

 DRAWDOWN WILL BE SAVED ON UNIT   52 AT END OF TIME STEP   43, STRESS PERIOD    2
1
  VOLUMETRIC BUDGET FOR ENTIRE MODEL AT END OF TIME STEP   43, STRESS PERIOD   2
  ------------------------------------------------------------------------------

     CUMULATIVE VOLUMES      L**3       RATES FOR THIS TIME STEP      L**3/T
     ------------------                 ------------------------

           IN:                                      IN:
           ---                                      ---
             STORAGE =      224171.0469               STORAGE =        1947.2555
       CONSTANT HEAD =           0.0000         CONSTANT HEAD =           0.0000
               WELLS =           0.0000                 WELLS =           0.0000
     HEAD DEP BOUNDS =          44.4874       HEAD DEP BOUNDS =           5.3674

            TOTAL IN =      224215.5312              TOTAL IN =        1952.6229

          OUT:                                     OUT:
          ----                                     ----
             STORAGE =           0.0000               STORAGE =           0.0000
       CONSTANT HEAD =           0.0000         CONSTANT HEAD =           0.0000
               WELLS =           0.0000                 WELLS =           0.0000
     HEAD DEP BOUNDS =      224215.7031       HEAD DEP BOUNDS =        1952.6378

           TOTAL OUT =      224215.7031             TOTAL OUT =        1952.6378

            IN - OUT =          -0.1719              IN - OUT =      -1.4893E-02

 PERCENT DISCREPANCY =          -0.00     PERCENT DISCREPANCY =          -0.00






         TIME SUMMARY AT END OF TIME STEP   43 IN STRESS PERIOD    2
                    SECONDS     MINUTES      HOURS       DAYS        YEARS
                    -----------------------------------------------------------
   TIME STEP LENGTH  86400.      1440.0      24.000      1.0000     2.73785E-03
 STRESS PERIOD TIME 3.71520E+06  61920.      1032.0      43.000     0.11773    
         TOTAL TIME 3.80160E+06  63360.      1056.0      44.000     0.12047    
1
 
 SOLVING FOR HEAD 

 OUTPUT CONTROL FOR STRESS PERIOD    2   TIME STEP   44
    SAVE HEAD FOR ALL LAYERS
    SAVE DRAWDOWN FOR ALL LAYERS
    SAVE BUDGET
    PRINT HEAD FOR ALL LAYERS
    PRINT BUDGET
 UBDSV1 SAVING "         STORAGE" ON UNIT  53 AT TIME STEP 44, STRESS PERIOD   2
 UBDSV2 SAVING "   CONSTANT HEAD" ON UNIT  53 AT TIME STEP 44, STRESS PERIOD   2
 UBDSV1 SAVING "FLOW RIGHT FACE " ON UNIT  53 AT TIME STEP 44, STRESS PERIOD   2
 UBDSV1 SAVING "FLOW FRONT FACE " ON UNIT  53 AT TIME STEP 44, STRESS PERIOD   2
1
              HEAD IN LAYER   1 AT END OF TIME STEP  44 IN STRESS PERIOD    2
  ---------------------------------------------------------------------------

            1           2           3           4           5           6           7           8           9          10
 ........................................................................................................................
   1   10.000       9.990       9.964       9.890       9.697       9.239       8.283       6.532       3.757      3.8628E-02
   2   10.000       9.990       9.964       9.890       9.697       9.239       8.283       6.532       3.757      3.8628E-02
   3   10.000       9.990       9.964       9.890       9.697       9.239       8.283       6.532       3.757      3.8628E-02
   4   10.000       9.990       9.964       9.890       9.697       9.239       8.283       6.532       3.757      3.8628E-02
   5   10.000       9.990       9.964       9.890       9.697       9.239       8.283       6.532       3.757      3.8628E-02
   6   10.000       9.990       9.964       9.890       9.697       9.239       8.283       6.532       3.757      3.8628E-02
   7   10.000       9.990       9.964       9.890       9.697       9.239       8.283       6.532       3.757      3.8628E-02
   8   10.000       9.990       9.964       9.890       9.697       9.239       8.283       6.532       3.757      3.8628E-02
   9   10.000       9.990       9.964       9.890       9.697       9.239       8.283       6.532       3.757      3.8628E-02
  10   10.000       9.990       9.964       9.890       9.697       9.239       8.283       6.532       3.757      3.8628E-02

 HEAD WILL BE SAVED ON UNIT   51 AT END OF TIME STEP   44, STRESS PERIOD    2

 DRAWDOWN WILL BE SAVED ON UNIT   52 AT END OF TIME STEP   44, STRESS PERIOD    2
1
  VOLUMETRIC BUDGET FOR ENTIRE MODEL AT END OF TIME STEP   44, STRESS PERIOD   2
  ------------------------------------------------------------------------------

     CUMULATIVE VOLUMES      L**3       RATES FOR THIS TIME STEP      L**3/T
     ------------------                 ------------------------

           IN:                                      IN:
           ---                                      ---
             STORAGE =      226096.5312               STORAGE =        1925.4780
       CONSTANT HEAD =           0.0000         CONSTANT HEAD =           0.0000
               WELLS =           0.0000                 WELLS =           0.0000
     HEAD DEP BOUNDS =          50.4672       HEAD DEP BOUNDS =           5.9797

            TOTAL IN =      226147.0000              TOTAL IN =        1931.4578

          OUT:                                     OUT:
          ----                                     ----
             STORAGE =           0.0000               STORAGE =           0.0000
       CONSTANT HEAD =           0.0000         CONSTANT HEAD =           0.0000
               WELLS =           0.0000                 WELLS =           0.0000
     HEAD DEP BOUNDS =      226147.1094       HEAD DEP BOUNDS =        1931.3995

           TOTAL OUT =      226147.1094             TOTAL OUT =        1931.3995

            IN - OUT =          -0.1094              IN - OUT =       5.8228E-02

 PERCENT DISCREPANCY =          -0.00     PERCENT DISCREPANCY =           0.00






         TIME SUMMARY AT END OF TIME STEP   44 IN STRESS PERIOD    2
                    SECONDS     MINUTES      HOURS       DAYS        YEARS
                    -----------------------------------------------------------
   TIME STEP LENGTH  86400.      1440.0      24.000      1.0000     2.73785E-03
 STRESS PERIOD TIME 3.80160E+06  63360.      1056.0      44.000     0.12047    
         TOTAL TIME 3.88800E+06  64800.      1080.0      45.000     0.12320    
1
 
 SOLVING FOR HEAD 

 OUTPUT CONTROL FOR STRESS PERIOD    2   TIME STEP   45
    SAVE HEAD FOR ALL LAYERS
    SAVE DRAWDOWN FOR ALL LAYERS
    SAVE BUDGET
    PRINT HEAD FOR ALL LAYERS
    PRINT BUDGET
 UBDSV1 SAVING "         STORAGE" ON UNIT  53 AT TIME STEP 45, STRESS PERIOD   2
 UBDSV2 SAVING "   CONSTANT HEAD" ON UNIT  53 AT TIME STEP 45, STRESS PERIOD   2
 UBDSV1 SAVING "FLOW RIGHT FACE " ON UNIT  53 AT TIME STEP 45, STRESS PERIOD   2
 UBDSV1 SAVING "FLOW FRONT FACE " ON UNIT  53 AT TIME STEP 45, STRESS PERIOD   2
1
              HEAD IN LAYER   1 AT END OF TIME STEP  45 IN STRESS PERIOD    2
  ---------------------------------------------------------------------------

            1           2           3           4           5           6           7           8           9          10
 ........................................................................................................................
   1   10.000       9.989       9.961       9.883       9.681       9.210       8.239       6.481       3.718      3.8217E-02
   2   10.000       9.989       9.961       9.883       9.681       9.210       8.239       6.481       3.718      3.8217E-02
   3   10.000       9.989       9.961       9.883       9.681       9.210       8.239       6.481       3.718      3.8217E-02
   4   10.000       9.989       9.961       9.883       9.681       9.210       8.239       6.481       3.718      3.8217E-02
   5   10.000       9.989       9.961       9.883       9.681       9.210       8.239       6.481       3.718      3.8217E-02
   6   10.000       9.989       9.961       9.883       9.681       9.210       8.239       6.481       3.718      3.8217E-02
   7   10.000       9.989       9.961       9.883       9.681       9.210       8.239       6.481       3.718      3.8217E-02
   8   10.000       9.989       9.961       9.883       9.681       9.210       8.239       6.481       3.718      3.8217E-02
   9   10.000       9.989       9.961       9.883       9.681       9.210       8.239       6.481       3.718      3.8217E-02
  10   10.000       9.989       9.961       9.883       9.681       9.210       8.239       6.481       3.718      3.8217E-02

 HEAD WILL BE SAVED ON UNIT   51 AT END OF TIME STEP   45, STRESS PERIOD    2

 DRAWDOWN WILL BE SAVED ON UNIT   52 AT END OF TIME STEP   45, STRESS PERIOD    2
1
  VOLUMETRIC BUDGET FOR ENTIRE MODEL AT END OF TIME STEP   45, STRESS PERIOD   2
  ------------------------------------------------------------------------------

     CUMULATIVE VOLUMES      L**3       RATES FOR THIS TIME STEP      L**3/T
     ------------------                 ------------------------

           IN:                                      IN:
           ---                                      ---
             STORAGE =      228000.7969               STORAGE =        1904.2690
       CONSTANT HEAD =           0.0000         CONSTANT HEAD =           0.0000
               WELLS =           0.0000                 WELLS =           0.0000
     HEAD DEP BOUNDS =          57.0238       HEAD DEP BOUNDS =           6.5566

            TOTAL IN =      228057.8281              TOTAL IN =        1910.8257

          OUT:                                     OUT:
          ----                                     ----
             STORAGE =           0.0000               STORAGE =           0.0000
       CONSTANT HEAD =           0.0000         CONSTANT HEAD =           0.0000
               WELLS =           0.0000                 WELLS =           0.0000
     HEAD DEP BOUNDS =      228057.9375       HEAD DEP BOUNDS =        1910.8254

           TOTAL OUT =      228057.9375             TOTAL OUT =        1910.8254

            IN - OUT =          -0.1094              IN - OUT =       2.4414E-04

 PERCENT DISCREPANCY =          -0.00     PERCENT DISCREPANCY =           0.00






         TIME SUMMARY AT END OF TIME STEP   45 IN STRESS PERIOD    2
                    SECONDS     MINUTES      HOURS       DAYS        YEARS
                    -----------------------------------------------------------
   TIME STEP LENGTH  86400.      1440.0      24.000      1.0000     2.73785E-03
 STRESS PERIOD TIME 3.88800E+06  64800.      1080.0      45.000     0.12320    
         TOTAL TIME 3.97440E+06  66240.      1104.0      46.000     0.12594    
1
 
 SOLVING FOR HEAD 

 OUTPUT CONTROL FOR STRESS PERIOD    2   TIME STEP   46
    SAVE HEAD FOR ALL LAYERS
    SAVE DRAWDOWN FOR ALL LAYERS
    SAVE BUDGET
    PRINT HEAD FOR ALL LAYERS
    PRINT BUDGET
 UBDSV1 SAVING "         STORAGE" ON UNIT  53 AT TIME STEP 46, STRESS PERIOD   2
 UBDSV2 SAVING "   CONSTANT HEAD" ON UNIT  53 AT TIME STEP 46, STRESS PERIOD   2
 UBDSV1 SAVING "FLOW RIGHT FACE " ON UNIT  53 AT TIME STEP 46, STRESS PERIOD   2
 UBDSV1 SAVING "FLOW FRONT FACE " ON UNIT  53 AT TIME STEP 46, STRESS PERIOD   2
1
              HEAD IN LAYER   1 AT END OF TIME STEP  46 IN STRESS PERIOD    2
  ---------------------------------------------------------------------------

            1           2           3           4           5           6           7           8           9          10
 ........................................................................................................................
   1   10.000       9.988       9.958       9.875       9.665       9.181       8.196       6.430       3.681      3.7818E-02
   2   10.000       9.988       9.958       9.875       9.665       9.181       8.196       6.430       3.681      3.7818E-02
   3   10.000       9.988       9.958       9.875       9.665       9.181       8.196       6.430       3.681      3.7818E-02
   4   10.000       9.988       9.958       9.875       9.665       9.181       8.196       6.430       3.681      3.7818E-02
   5   10.000       9.988       9.958       9.875       9.665       9.181       8.196       6.430       3.681      3.7818E-02
   6   10.000       9.988       9.958       9.875       9.665       9.181       8.196       6.430       3.681      3.7818E-02
   7   10.000       9.988       9.958       9.875       9.665       9.181       8.196       6.430       3.681      3.7818E-02
   8   10.000       9.988       9.958       9.875       9.665       9.181       8.196       6.430       3.681      3.7818E-02
   9   10.000       9.988       9.958       9.875       9.665       9.181       8.196       6.430       3.681      3.7818E-02
  10   10.000       9.988       9.958       9.875       9.665       9.181       8.196       6.430       3.681      3.7818E-02

 HEAD WILL BE SAVED ON UNIT   51 AT END OF TIME STEP   46, STRESS PERIOD    2

 DRAWDOWN WILL BE SAVED ON UNIT   52 AT END OF TIME STEP   46, STRESS PERIOD    2
1
  VOLUMETRIC BUDGET FOR ENTIRE MODEL AT END OF TIME STEP   46, STRESS PERIOD   2
  ------------------------------------------------------------------------------

     CUMULATIVE VOLUMES      L**3       RATES FOR THIS TIME STEP      L**3/T
     ------------------                 ------------------------

           IN:                                      IN:
           ---                                      ---
             STORAGE =      229884.5156               STORAGE =        1883.7173
       CONSTANT HEAD =           0.0000         CONSTANT HEAD =           0.0000
               WELLS =           0.0000                 WELLS =           0.0000
     HEAD DEP BOUNDS =          64.1892       HEAD DEP BOUNDS =           7.1655

            TOTAL IN =      229948.7031              TOTAL IN =        1890.8827

          OUT:                                     OUT:
          ----                                     ----
             STORAGE =           0.0000               STORAGE =           0.0000
       CONSTANT HEAD =           0.0000         CONSTANT HEAD =           0.0000
               WELLS =           0.0000                 WELLS =           0.0000
     HEAD DEP BOUNDS =      229948.8281       HEAD DEP BOUNDS =        1890.8888

           TOTAL OUT =      229948.8281             TOTAL OUT =        1890.8888

            IN - OUT =          -0.1250              IN - OUT =      -6.1035E-03

 PERCENT DISCREPANCY =          -0.00     PERCENT DISCREPANCY =          -0.00






         TIME SUMMARY AT END OF TIME STEP   46 IN STRESS PERIOD    2
                    SECONDS     MINUTES      HOURS       DAYS        YEARS
                    -----------------------------------------------------------
   TIME STEP LENGTH  86400.      1440.0      24.000      1.0000     2.73785E-03
 STRESS PERIOD TIME 3.97440E+06  66240.      1104.0      46.000     0.12594    
         TOTAL TIME 4.06080E+06  67680.      1128.0      47.000     0.12868    
1
 
 SOLVING FOR HEAD 

 OUTPUT CONTROL FOR STRESS PERIOD    2   TIME STEP   47
    SAVE HEAD FOR ALL LAYERS
    SAVE DRAWDOWN FOR ALL LAYERS
    SAVE BUDGET
    PRINT HEAD FOR ALL LAYERS
    PRINT BUDGET
 UBDSV1 SAVING "         STORAGE" ON UNIT  53 AT TIME STEP 47, STRESS PERIOD   2
 UBDSV2 SAVING "   CONSTANT HEAD" ON UNIT  53 AT TIME STEP 47, STRESS PERIOD   2
 UBDSV1 SAVING "FLOW RIGHT FACE " ON UNIT  53 AT TIME STEP 47, STRESS PERIOD   2
 UBDSV1 SAVING "FLOW FRONT FACE " ON UNIT  53 AT TIME STEP 47, STRESS PERIOD   2
1
              HEAD IN LAYER   1 AT END OF TIME STEP  47 IN STRESS PERIOD    2
  ---------------------------------------------------------------------------

            1           2           3           4           5           6           7           8           9          10
 ........................................................................................................................
   1   10.000       9.987       9.955       9.868       9.648       9.152       8.153       6.381       3.645      3.7431E-02
   2   10.000       9.987       9.955       9.868       9.648       9.152       8.153       6.381       3.645      3.7431E-02
   3   10.000       9.987       9.955       9.868       9.648       9.152       8.153       6.381       3.645      3.7431E-02
   4   10.000       9.987       9.955       9.868       9.648       9.152       8.153       6.381       3.645      3.7431E-02
   5   10.000       9.987       9.955       9.868       9.648       9.152       8.153       6.381       3.645      3.7431E-02
   6   10.000       9.987       9.955       9.868       9.648       9.152       8.153       6.381       3.645      3.7431E-02
   7   10.000       9.987       9.955       9.868       9.648       9.152       8.153       6.381       3.645      3.7431E-02
   8   10.000       9.987       9.955       9.868       9.648       9.152       8.153       6.381       3.645      3.7431E-02
   9   10.000       9.987       9.955       9.868       9.648       9.152       8.153       6.381       3.645      3.7431E-02
  10   10.000       9.987       9.955       9.868       9.648       9.152       8.153       6.381       3.645      3.7431E-02

 HEAD WILL BE SAVED ON UNIT   51 AT END OF TIME STEP   47, STRESS PERIOD    2

 DRAWDOWN WILL BE SAVED ON UNIT   52 AT END OF TIME STEP   47, STRESS PERIOD    2
1
  VOLUMETRIC BUDGET FOR ENTIRE MODEL AT END OF TIME STEP   47, STRESS PERIOD   2
  ------------------------------------------------------------------------------

     CUMULATIVE VOLUMES      L**3       RATES FOR THIS TIME STEP      L**3/T
     ------------------                 ------------------------

           IN:                                      IN:
           ---                                      ---
             STORAGE =      231748.2500               STORAGE =        1863.7377
       CONSTANT HEAD =           0.0000         CONSTANT HEAD =           0.0000
               WELLS =           0.0000                 WELLS =           0.0000
     HEAD DEP BOUNDS =          71.9955       HEAD DEP BOUNDS =           7.8063

            TOTAL IN =      231820.2500              TOTAL IN =        1871.5439

          OUT:                                     OUT:
          ----                                     ----
             STORAGE =           0.0000               STORAGE =           0.0000
       CONSTANT HEAD =           0.0000         CONSTANT HEAD =           0.0000
               WELLS =           0.0000                 WELLS =           0.0000
     HEAD DEP BOUNDS =      231820.3906       HEAD DEP BOUNDS =        1871.5551

           TOTAL OUT =      231820.3906             TOTAL OUT =        1871.5551

            IN - OUT =          -0.1406              IN - OUT =      -1.1108E-02

 PERCENT DISCREPANCY =          -0.00     PERCENT DISCREPANCY =          -0.00






         TIME SUMMARY AT END OF TIME STEP   47 IN STRESS PERIOD    2
                    SECONDS     MINUTES      HOURS       DAYS        YEARS
                    -----------------------------------------------------------
   TIME STEP LENGTH  86400.      1440.0      24.000      1.0000     2.73785E-03
 STRESS PERIOD TIME 4.06080E+06  67680.      1128.0      47.000     0.12868    
         TOTAL TIME 4.14720E+06  69120.      1152.0      48.000     0.13142    
1
 
 SOLVING FOR HEAD 

 OUTPUT CONTROL FOR STRESS PERIOD    2   TIME STEP   48
    SAVE HEAD FOR ALL LAYERS
    SAVE DRAWDOWN FOR ALL LAYERS
    SAVE BUDGET
    PRINT HEAD FOR ALL LAYERS
    PRINT BUDGET
 UBDSV1 SAVING "         STORAGE" ON UNIT  53 AT TIME STEP 48, STRESS PERIOD   2
 UBDSV2 SAVING "   CONSTANT HEAD" ON UNIT  53 AT TIME STEP 48, STRESS PERIOD   2
 UBDSV1 SAVING "FLOW RIGHT FACE " ON UNIT  53 AT TIME STEP 48, STRESS PERIOD   2
 UBDSV1 SAVING "FLOW FRONT FACE " ON UNIT  53 AT TIME STEP 48, STRESS PERIOD   2
1
              HEAD IN LAYER   1 AT END OF TIME STEP  48 IN STRESS PERIOD    2
  ---------------------------------------------------------------------------

            1           2           3           4           5           6           7           8           9          10
 ........................................................................................................................
   1   10.000       9.985       9.951       9.859       9.632       9.123       8.111       6.333       3.609      3.7056E-02
   2   10.000       9.985       9.951       9.859       9.632       9.123       8.111       6.333       3.609      3.7056E-02
   3   10.000       9.985       9.951       9.859       9.632       9.123       8.111       6.333       3.609      3.7056E-02
   4   10.000       9.985       9.951       9.859       9.632       9.123       8.111       6.333       3.609      3.7056E-02
   5   10.000       9.985       9.951       9.859       9.632       9.123       8.111       6.333       3.609      3.7056E-02
   6   10.000       9.985       9.951       9.859       9.632       9.123       8.111       6.333       3.609      3.7056E-02
   7   10.000       9.985       9.951       9.859       9.632       9.123       8.111       6.333       3.609      3.7056E-02
   8   10.000       9.985       9.951       9.859       9.632       9.123       8.111       6.333       3.609      3.7056E-02
   9   10.000       9.985       9.951       9.859       9.632       9.123       8.111       6.333       3.609      3.7056E-02
  10   10.000       9.985       9.951       9.859       9.632       9.123       8.111       6.333       3.609      3.7056E-02

 HEAD WILL BE SAVED ON UNIT   51 AT END OF TIME STEP   48, STRESS PERIOD    2

 DRAWDOWN WILL BE SAVED ON UNIT   52 AT END OF TIME STEP   48, STRESS PERIOD    2
1
  VOLUMETRIC BUDGET FOR ENTIRE MODEL AT END OF TIME STEP   48, STRESS PERIOD   2
  ------------------------------------------------------------------------------

     CUMULATIVE VOLUMES      L**3       RATES FOR THIS TIME STEP      L**3/T
     ------------------                 ------------------------

           IN:                                      IN:
           ---                                      ---
             STORAGE =      233592.5156               STORAGE =        1844.2595
       CONSTANT HEAD =           0.0000         CONSTANT HEAD =           0.0000
               WELLS =           0.0000                 WELLS =           0.0000
     HEAD DEP BOUNDS =          80.5418       HEAD DEP BOUNDS =           8.5463

            TOTAL IN =      233673.0625              TOTAL IN =        1852.8058

          OUT:                                     OUT:
          ----                                     ----
             STORAGE =           0.0000               STORAGE =           0.0000
       CONSTANT HEAD =           0.0000         CONSTANT HEAD =           0.0000
               WELLS =           0.0000                 WELLS =           0.0000
     HEAD DEP BOUNDS =      233673.1719       HEAD DEP BOUNDS =        1852.7844

           TOTAL OUT =      233673.1719             TOTAL OUT =        1852.7844

            IN - OUT =          -0.1094              IN - OUT =       2.1362E-02

 PERCENT DISCREPANCY =          -0.00     PERCENT DISCREPANCY =           0.00






         TIME SUMMARY AT END OF TIME STEP   48 IN STRESS PERIOD    2
                    SECONDS     MINUTES      HOURS       DAYS        YEARS
                    -----------------------------------------------------------
   TIME STEP LENGTH  86400.      1440.0      24.000      1.0000     2.73785E-03
 STRESS PERIOD TIME 4.14720E+06  69120.      1152.0      48.000     0.13142    
         TOTAL TIME 4.23360E+06  70560.      1176.0      49.000     0.13415    
1
 
 SOLVING FOR HEAD 

 OUTPUT CONTROL FOR STRESS PERIOD    2   TIME STEP   49
    SAVE HEAD FOR ALL LAYERS
    SAVE DRAWDOWN FOR ALL LAYERS
    SAVE BUDGET
    PRINT HEAD FOR ALL LAYERS
    PRINT BUDGET
 UBDSV1 SAVING "         STORAGE" ON UNIT  53 AT TIME STEP 49, STRESS PERIOD   2
 UBDSV2 SAVING "   CONSTANT HEAD" ON UNIT  53 AT TIME STEP 49, STRESS PERIOD   2
 UBDSV1 SAVING "FLOW RIGHT FACE " ON UNIT  53 AT TIME STEP 49, STRESS PERIOD   2
 UBDSV1 SAVING "FLOW FRONT FACE " ON UNIT  53 AT TIME STEP 49, STRESS PERIOD   2
1
              HEAD IN LAYER   1 AT END OF TIME STEP  49 IN STRESS PERIOD    2
  ---------------------------------------------------------------------------

            1           2           3           4           5           6           7           8           9          10
 ........................................................................................................................
   1   10.000       9.984       9.948       9.851       9.615       9.094       8.069       6.286       3.575      3.6691E-02
   2   10.000       9.984       9.948       9.851       9.615       9.094       8.069       6.286       3.575      3.6691E-02
   3   10.000       9.984       9.948       9.851       9.615       9.094       8.069       6.286       3.575      3.6691E-02
   4   10.000       9.984       9.948       9.851       9.615       9.094       8.069       6.286       3.575      3.6691E-02
   5   10.000       9.984       9.948       9.851       9.615       9.094       8.069       6.286       3.575      3.6691E-02
   6   10.000       9.984       9.948       9.851       9.615       9.094       8.069       6.286       3.575      3.6691E-02
   7   10.000       9.984       9.948       9.851       9.615       9.094       8.069       6.286       3.575      3.6691E-02
   8   10.000       9.984       9.948       9.851       9.615       9.094       8.069       6.286       3.575      3.6691E-02
   9   10.000       9.984       9.948       9.851       9.615       9.094       8.069       6.286       3.575      3.6691E-02
  10   10.000       9.984       9.948       9.851       9.615       9.094       8.069       6.286       3.575      3.6691E-02

 HEAD WILL BE SAVED ON UNIT   51 AT END OF TIME STEP   49, STRESS PERIOD    2

 DRAWDOWN WILL BE SAVED ON UNIT   52 AT END OF TIME STEP   49, STRESS PERIOD    2
1
  VOLUMETRIC BUDGET FOR ENTIRE MODEL AT END OF TIME STEP   49, STRESS PERIOD   2
  ------------------------------------------------------------------------------

     CUMULATIVE VOLUMES      L**3       RATES FOR THIS TIME STEP      L**3/T
     ------------------                 ------------------------

           IN:                                      IN:
           ---                                      ---
             STORAGE =      235417.8281               STORAGE =        1825.3088
       CONSTANT HEAD =           0.0000         CONSTANT HEAD =           0.0000
               WELLS =           0.0000                 WELLS =           0.0000
     HEAD DEP BOUNDS =          89.7946       HEAD DEP BOUNDS =           9.2528

            TOTAL IN =      235507.6250              TOTAL IN =        1834.5616

          OUT:                                     OUT:
          ----                                     ----
             STORAGE =           0.0000               STORAGE =           0.0000
       CONSTANT HEAD =           0.0000         CONSTANT HEAD =           0.0000
               WELLS =           0.0000                 WELLS =           0.0000
     HEAD DEP BOUNDS =      235507.7500       HEAD DEP BOUNDS =        1834.5703

           TOTAL OUT =      235507.7500             TOTAL OUT =        1834.5703

            IN - OUT =          -0.1250              IN - OUT =      -8.6670E-03

 PERCENT DISCREPANCY =          -0.00     PERCENT DISCREPANCY =          -0.00






         TIME SUMMARY AT END OF TIME STEP   49 IN STRESS PERIOD    2
                    SECONDS     MINUTES      HOURS       DAYS        YEARS
                    -----------------------------------------------------------
   TIME STEP LENGTH  86400.      1440.0      24.000      1.0000     2.73785E-03
 STRESS PERIOD TIME 4.23360E+06  70560.      1176.0      49.000     0.13415    
         TOTAL TIME 4.32000E+06  72000.      1200.0      50.000     0.13689    
1
 
 SOLVING FOR HEAD 

 OUTPUT CONTROL FOR STRESS PERIOD    2   TIME STEP   50
    SAVE HEAD FOR ALL LAYERS
    SAVE DRAWDOWN FOR ALL LAYERS
    SAVE BUDGET
    PRINT HEAD FOR ALL LAYERS
    PRINT BUDGET
 UBDSV1 SAVING "         STORAGE" ON UNIT  53 AT TIME STEP 50, STRESS PERIOD   2
 UBDSV2 SAVING "   CONSTANT HEAD" ON UNIT  53 AT TIME STEP 50, STRESS PERIOD   2
 UBDSV1 SAVING "FLOW RIGHT FACE " ON UNIT  53 AT TIME STEP 50, STRESS PERIOD   2
 UBDSV1 SAVING "FLOW FRONT FACE " ON UNIT  53 AT TIME STEP 50, STRESS PERIOD   2
1
              HEAD IN LAYER   1 AT END OF TIME STEP  50 IN STRESS PERIOD    2
  ---------------------------------------------------------------------------

            1           2           3           4           5           6           7           8           9          10
 ........................................................................................................................
   1   10.000       9.983       9.944       9.843       9.598       9.065       8.027       6.241       3.542      3.6338E-02
   2   10.000       9.983       9.944       9.843       9.598       9.065       8.027       6.241       3.542      3.6338E-02
   3   10.000       9.983       9.944       9.843       9.598       9.065       8.027       6.241       3.542      3.6338E-02
   4   10.000       9.983       9.944       9.843       9.598       9.065       8.027       6.241       3.542      3.6338E-02
   5   10.000       9.983       9.944       9.843       9.598       9.065       8.027       6.241       3.542      3.6338E-02
   6   10.000       9.983       9.944       9.843       9.598       9.065       8.027       6.241       3.542      3.6338E-02
   7   10.000       9.983       9.944       9.843       9.598       9.065       8.027       6.241       3.542      3.6338E-02
   8   10.000       9.983       9.944       9.843       9.598       9.065       8.027       6.241       3.542      3.6338E-02
   9   10.000       9.983       9.944       9.843       9.598       9.065       8.027       6.241       3.542      3.6338E-02
  10   10.000       9.983       9.944       9.843       9.598       9.065       8.027       6.241       3.542      3.6338E-02

 HEAD WILL BE SAVED ON UNIT   51 AT END OF TIME STEP   50, STRESS PERIOD    2

 DRAWDOWN WILL BE SAVED ON UNIT   52 AT END OF TIME STEP   50, STRESS PERIOD    2
1
  VOLUMETRIC BUDGET FOR ENTIRE MODEL AT END OF TIME STEP   50, STRESS PERIOD   2
  ------------------------------------------------------------------------------

     CUMULATIVE VOLUMES      L**3       RATES FOR THIS TIME STEP      L**3/T
     ------------------                 ------------------------

           IN:                                      IN:
           ---                                      ---
             STORAGE =      237224.6719               STORAGE =        1806.8491
       CONSTANT HEAD =           0.0000         CONSTANT HEAD =           0.0000
               WELLS =           0.0000                 WELLS =           0.0000
     HEAD DEP BOUNDS =          99.8543       HEAD DEP BOUNDS =          10.0598

            TOTAL IN =      237324.5312              TOTAL IN =        1816.9089

          OUT:                                     OUT:
          ----                                     ----
             STORAGE =           0.0000               STORAGE =           0.0000
       CONSTANT HEAD =           0.0000         CONSTANT HEAD =           0.0000
               WELLS =           0.0000                 WELLS =           0.0000
     HEAD DEP BOUNDS =      237324.6250       HEAD DEP BOUNDS =        1816.8751

           TOTAL OUT =      237324.6250             TOTAL OUT =        1816.8751

            IN - OUT =      -9.3750E-02              IN - OUT =       3.3813E-02

 PERCENT DISCREPANCY =          -0.00     PERCENT DISCREPANCY =           0.00






         TIME SUMMARY AT END OF TIME STEP   50 IN STRESS PERIOD    2
                    SECONDS     MINUTES      HOURS       DAYS        YEARS
                    -----------------------------------------------------------
   TIME STEP LENGTH  86400.      1440.0      24.000      1.0000     2.73785E-03
 STRESS PERIOD TIME 4.32000E+06  72000.      1200.0      50.000     0.13689    
         TOTAL TIME 4.40640E+06  73440.      1224.0      51.000     0.13963    
1
 
 SOLVING FOR HEAD 

 OUTPUT CONTROL FOR STRESS PERIOD    2   TIME STEP   51
    SAVE HEAD FOR ALL LAYERS
    SAVE DRAWDOWN FOR ALL LAYERS
    SAVE BUDGET
    PRINT HEAD FOR ALL LAYERS
    PRINT BUDGET
 UBDSV1 SAVING "         STORAGE" ON UNIT  53 AT TIME STEP 51, STRESS PERIOD   2
 UBDSV2 SAVING "   CONSTANT HEAD" ON UNIT  53 AT TIME STEP 51, STRESS PERIOD   2
 UBDSV1 SAVING "FLOW RIGHT FACE " ON UNIT  53 AT TIME STEP 51, STRESS PERIOD   2
 UBDSV1 SAVING "FLOW FRONT FACE " ON UNIT  53 AT TIME STEP 51, STRESS PERIOD   2
1
              HEAD IN LAYER   1 AT END OF TIME STEP  51 IN STRESS PERIOD    2
  ---------------------------------------------------------------------------

            1           2           3           4           5           6           7           8           9          10
 ........................................................................................................................
   1   10.000       9.981       9.940       9.834       9.581       9.036       7.987       6.195       3.509      3.5994E-02
   2   10.000       9.981       9.940       9.834       9.581       9.036       7.987       6.195       3.509      3.5994E-02
   3   10.000       9.981       9.940       9.834       9.581       9.036       7.987       6.195       3.509      3.5994E-02
   4   10.000       9.981       9.940       9.834       9.581       9.036       7.987       6.195       3.509      3.5994E-02
   5   10.000       9.981       9.940       9.834       9.581       9.036       7.987       6.195       3.509      3.5994E-02
   6   10.000       9.981       9.940       9.834       9.581       9.036       7.987       6.195       3.509      3.5994E-02
   7   10.000       9.981       9.940       9.834       9.581       9.036       7.987       6.195       3.509      3.5994E-02
   8   10.000       9.981       9.940       9.834       9.581       9.036       7.987       6.195       3.509      3.5994E-02
   9   10.000       9.981       9.940       9.834       9.581       9.036       7.987       6.195       3.509      3.5994E-02
  10   10.000       9.981       9.940       9.834       9.581       9.036       7.987       6.195       3.509      3.5994E-02

 HEAD WILL BE SAVED ON UNIT   51 AT END OF TIME STEP   51, STRESS PERIOD    2

 DRAWDOWN WILL BE SAVED ON UNIT   52 AT END OF TIME STEP   51, STRESS PERIOD    2
1
  VOLUMETRIC BUDGET FOR ENTIRE MODEL AT END OF TIME STEP   51, STRESS PERIOD   2
  ------------------------------------------------------------------------------

     CUMULATIVE VOLUMES      L**3       RATES FOR THIS TIME STEP      L**3/T
     ------------------                 ------------------------

           IN:                                      IN:
           ---                                      ---
             STORAGE =      239013.5156               STORAGE =        1788.8363
       CONSTANT HEAD =           0.0000         CONSTANT HEAD =           0.0000
               WELLS =           0.0000                 WELLS =           0.0000
     HEAD DEP BOUNDS =         110.7548       HEAD DEP BOUNDS =          10.9004

            TOTAL IN =      239124.2656              TOTAL IN =        1799.7367

          OUT:                                     OUT:
          ----                                     ----
             STORAGE =           0.0000               STORAGE =           0.0000
       CONSTANT HEAD =           0.0000         CONSTANT HEAD =           0.0000
               WELLS =           0.0000                 WELLS =           0.0000
     HEAD DEP BOUNDS =      239124.3125       HEAD DEP BOUNDS =        1799.6797

           TOTAL OUT =      239124.3125             TOTAL OUT =        1799.6797

            IN - OUT =      -4.6875E-02              IN - OUT =       5.7007E-02

 PERCENT DISCREPANCY =          -0.00     PERCENT DISCREPANCY =           0.00






         TIME SUMMARY AT END OF TIME STEP   51 IN STRESS PERIOD    2
                    SECONDS     MINUTES      HOURS       DAYS        YEARS
                    -----------------------------------------------------------
   TIME STEP LENGTH  86400.      1440.0      24.000      1.0000     2.73785E-03
 STRESS PERIOD TIME 4.40640E+06  73440.      1224.0      51.000     0.13963    
         TOTAL TIME 4.49280E+06  74880.      1248.0      52.000     0.14237    
1
 
 SOLVING FOR HEAD 

 OUTPUT CONTROL FOR STRESS PERIOD    2   TIME STEP   52
    SAVE HEAD FOR ALL LAYERS
    SAVE DRAWDOWN FOR ALL LAYERS
    SAVE BUDGET
    PRINT HEAD FOR ALL LAYERS
    PRINT BUDGET
 UBDSV1 SAVING "         STORAGE" ON UNIT  53 AT TIME STEP 52, STRESS PERIOD   2
 UBDSV2 SAVING "   CONSTANT HEAD" ON UNIT  53 AT TIME STEP 52, STRESS PERIOD   2
 UBDSV1 SAVING "FLOW RIGHT FACE " ON UNIT  53 AT TIME STEP 52, STRESS PERIOD   2
 UBDSV1 SAVING "FLOW FRONT FACE " ON UNIT  53 AT TIME STEP 52, STRESS PERIOD   2
1
              HEAD IN LAYER   1 AT END OF TIME STEP  52 IN STRESS PERIOD    2
  ---------------------------------------------------------------------------

            1           2           3           4           5           6           7           8           9          10
 ........................................................................................................................
   1   10.000       9.980       9.936       9.825       9.563       9.007       7.946       6.151       3.478      3.5659E-02
   2   10.000       9.980       9.936       9.825       9.563       9.007       7.946       6.151       3.478      3.5659E-02
   3   10.000       9.980       9.936       9.825       9.563       9.007       7.946       6.151       3.478      3.5659E-02
   4   10.000       9.980       9.936       9.825       9.563       9.007       7.946       6.151       3.478      3.5659E-02
   5   10.000       9.980       9.936       9.825       9.563       9.007       7.946       6.151       3.478      3.5659E-02
   6   10.000       9.980       9.936       9.825       9.563       9.007       7.946       6.151       3.478      3.5659E-02
   7   10.000       9.980       9.936       9.825       9.563       9.007       7.946       6.151       3.478      3.5659E-02
   8   10.000       9.980       9.936       9.825       9.563       9.007       7.946       6.151       3.478      3.5659E-02
   9   10.000       9.980       9.936       9.825       9.563       9.007       7.946       6.151       3.478      3.5659E-02
  10   10.000       9.980       9.936       9.825       9.563       9.007       7.946       6.151       3.478      3.5659E-02

 HEAD WILL BE SAVED ON UNIT   51 AT END OF TIME STEP   52, STRESS PERIOD    2

 DRAWDOWN WILL BE SAVED ON UNIT   52 AT END OF TIME STEP   52, STRESS PERIOD    2
1
  VOLUMETRIC BUDGET FOR ENTIRE MODEL AT END OF TIME STEP   52, STRESS PERIOD   2
  ------------------------------------------------------------------------------

     CUMULATIVE VOLUMES      L**3       RATES FOR THIS TIME STEP      L**3/T
     ------------------                 ------------------------

           IN:                                      IN:
           ---                                      ---
             STORAGE =      240784.7500               STORAGE =        1771.2338
       CONSTANT HEAD =           0.0000         CONSTANT HEAD =           0.0000
               WELLS =           0.0000                 WELLS =           0.0000
     HEAD DEP BOUNDS =         122.4635       HEAD DEP BOUNDS =          11.7088

            TOTAL IN =      240907.2188              TOTAL IN =        1782.9425

          OUT:                                     OUT:
          ----                                     ----
             STORAGE =           0.0000               STORAGE =           0.0000
       CONSTANT HEAD =           0.0000         CONSTANT HEAD =           0.0000
               WELLS =           0.0000                 WELLS =           0.0000
     HEAD DEP BOUNDS =      240907.2656       HEAD DEP BOUNDS =        1782.9489

           TOTAL OUT =      240907.2656             TOTAL OUT =        1782.9489

            IN - OUT =      -4.6875E-02              IN - OUT =      -6.3477E-03

 PERCENT DISCREPANCY =          -0.00     PERCENT DISCREPANCY =          -0.00






         TIME SUMMARY AT END OF TIME STEP   52 IN STRESS PERIOD    2
                    SECONDS     MINUTES      HOURS       DAYS        YEARS
                    -----------------------------------------------------------
   TIME STEP LENGTH  86400.      1440.0      24.000      1.0000     2.73785E-03
 STRESS PERIOD TIME 4.49280E+06  74880.      1248.0      52.000     0.14237    
         TOTAL TIME 4.57920E+06  76320.      1272.0      53.000     0.14511    
1
 
 SOLVING FOR HEAD 

 OUTPUT CONTROL FOR STRESS PERIOD    2   TIME STEP   53
    SAVE HEAD FOR ALL LAYERS
    SAVE DRAWDOWN FOR ALL LAYERS
    SAVE BUDGET
    PRINT HEAD FOR ALL LAYERS
    PRINT BUDGET
 UBDSV1 SAVING "         STORAGE" ON UNIT  53 AT TIME STEP 53, STRESS PERIOD   2
 UBDSV2 SAVING "   CONSTANT HEAD" ON UNIT  53 AT TIME STEP 53, STRESS PERIOD   2
 UBDSV1 SAVING "FLOW RIGHT FACE " ON UNIT  53 AT TIME STEP 53, STRESS PERIOD   2
 UBDSV1 SAVING "FLOW FRONT FACE " ON UNIT  53 AT TIME STEP 53, STRESS PERIOD   2
1
              HEAD IN LAYER   1 AT END OF TIME STEP  53 IN STRESS PERIOD    2
  ---------------------------------------------------------------------------

            1           2           3           4           5           6           7           8           9          10
 ........................................................................................................................
   1   10.000       9.979       9.932       9.816       9.546       8.978       7.906       6.108       3.447      3.5334E-02
   2   10.000       9.979       9.932       9.816       9.546       8.978       7.906       6.108       3.447      3.5334E-02
   3   10.000       9.979       9.932       9.816       9.546       8.978       7.906       6.108       3.447      3.5334E-02
   4   10.000       9.979       9.932       9.816       9.546       8.978       7.906       6.108       3.447      3.5334E-02
   5   10.000       9.979       9.932       9.816       9.546       8.978       7.906       6.108       3.447      3.5334E-02
   6   10.000       9.979       9.932       9.816       9.546       8.978       7.906       6.108       3.447      3.5334E-02
   7   10.000       9.979       9.932       9.816       9.546       8.978       7.906       6.108       3.447      3.5334E-02
   8   10.000       9.979       9.932       9.816       9.546       8.978       7.906       6.108       3.447      3.5334E-02
   9   10.000       9.979       9.932       9.816       9.546       8.978       7.906       6.108       3.447      3.5334E-02
  10   10.000       9.979       9.932       9.816       9.546       8.978       7.906       6.108       3.447      3.5334E-02

 HEAD WILL BE SAVED ON UNIT   51 AT END OF TIME STEP   53, STRESS PERIOD    2

 DRAWDOWN WILL BE SAVED ON UNIT   52 AT END OF TIME STEP   53, STRESS PERIOD    2
1
  VOLUMETRIC BUDGET FOR ENTIRE MODEL AT END OF TIME STEP   53, STRESS PERIOD   2
  ------------------------------------------------------------------------------

     CUMULATIVE VOLUMES      L**3       RATES FOR THIS TIME STEP      L**3/T
     ------------------                 ------------------------

           IN:                                      IN:
           ---                                      ---
             STORAGE =      242538.8125               STORAGE =        1754.0552
       CONSTANT HEAD =           0.0000         CONSTANT HEAD =           0.0000
               WELLS =           0.0000                 WELLS =           0.0000
     HEAD DEP BOUNDS =         135.0811       HEAD DEP BOUNDS =          12.6176

            TOTAL IN =      242673.8906              TOTAL IN =        1766.6727

          OUT:                                     OUT:
          ----                                     ----
             STORAGE =           0.0000               STORAGE =           0.0000
       CONSTANT HEAD =           0.0000         CONSTANT HEAD =           0.0000
               WELLS =           0.0000                 WELLS =           0.0000
     HEAD DEP BOUNDS =      242673.9531       HEAD DEP BOUNDS =        1766.6819

           TOTAL OUT =      242673.9531             TOTAL OUT =        1766.6819

            IN - OUT =      -6.2500E-02              IN - OUT =      -9.1553E-03

 PERCENT DISCREPANCY =          -0.00     PERCENT DISCREPANCY =          -0.00






         TIME SUMMARY AT END OF TIME STEP   53 IN STRESS PERIOD    2
                    SECONDS     MINUTES      HOURS       DAYS        YEARS
                    -----------------------------------------------------------
   TIME STEP LENGTH  86400.      1440.0      24.000      1.0000     2.73785E-03
 STRESS PERIOD TIME 4.57920E+06  76320.      1272.0      53.000     0.14511    
         TOTAL TIME 4.66560E+06  77760.      1296.0      54.000     0.14784    
1
 
 SOLVING FOR HEAD 

 OUTPUT CONTROL FOR STRESS PERIOD    2   TIME STEP   54
    SAVE HEAD FOR ALL LAYERS
    SAVE DRAWDOWN FOR ALL LAYERS
    SAVE BUDGET
    PRINT HEAD FOR ALL LAYERS
    PRINT BUDGET
 UBDSV1 SAVING "         STORAGE" ON UNIT  53 AT TIME STEP 54, STRESS PERIOD   2
 UBDSV2 SAVING "   CONSTANT HEAD" ON UNIT  53 AT TIME STEP 54, STRESS PERIOD   2
 UBDSV1 SAVING "FLOW RIGHT FACE " ON UNIT  53 AT TIME STEP 54, STRESS PERIOD   2
 UBDSV1 SAVING "FLOW FRONT FACE " ON UNIT  53 AT TIME STEP 54, STRESS PERIOD   2
1
              HEAD IN LAYER   1 AT END OF TIME STEP  54 IN STRESS PERIOD    2
  ---------------------------------------------------------------------------

            1           2           3           4           5           6           7           8           9          10
 ........................................................................................................................
   1   10.000       9.977       9.928       9.806       9.528       8.949       7.867       6.066       3.417      3.5017E-02
   2   10.000       9.977       9.928       9.806       9.528       8.949       7.867       6.066       3.417      3.5017E-02
   3   10.000       9.977       9.928       9.806       9.528       8.949       7.867       6.066       3.417      3.5017E-02
   4   10.000       9.977       9.928       9.806       9.528       8.949       7.867       6.066       3.417      3.5017E-02
   5   10.000       9.977       9.928       9.806       9.528       8.949       7.867       6.066       3.417      3.5017E-02
   6   10.000       9.977       9.928       9.806       9.528       8.949       7.867       6.066       3.417      3.5017E-02
   7   10.000       9.977       9.928       9.806       9.528       8.949       7.867       6.066       3.417      3.5017E-02
   8   10.000       9.977       9.928       9.806       9.528       8.949       7.867       6.066       3.417      3.5017E-02
   9   10.000       9.977       9.928       9.806       9.528       8.949       7.867       6.066       3.417      3.5017E-02
  10   10.000       9.977       9.928       9.806       9.528       8.949       7.867       6.066       3.417      3.5017E-02

 HEAD WILL BE SAVED ON UNIT   51 AT END OF TIME STEP   54, STRESS PERIOD    2

 DRAWDOWN WILL BE SAVED ON UNIT   52 AT END OF TIME STEP   54, STRESS PERIOD    2
1
  VOLUMETRIC BUDGET FOR ENTIRE MODEL AT END OF TIME STEP   54, STRESS PERIOD   2
  ------------------------------------------------------------------------------

     CUMULATIVE VOLUMES      L**3       RATES FOR THIS TIME STEP      L**3/T
     ------------------                 ------------------------

           IN:                                      IN:
           ---                                      ---
             STORAGE =      244276.0938               STORAGE =        1737.2889
       CONSTANT HEAD =           0.0000         CONSTANT HEAD =           0.0000
               WELLS =           0.0000                 WELLS =           0.0000
     HEAD DEP BOUNDS =         148.6421       HEAD DEP BOUNDS =          13.5609

            TOTAL IN =      244424.7344              TOTAL IN =        1750.8499

          OUT:                                     OUT:
          ----                                     ----
             STORAGE =           0.0000               STORAGE =           0.0000
       CONSTANT HEAD =           0.0000         CONSTANT HEAD =           0.0000
               WELLS =           0.0000                 WELLS =           0.0000
     HEAD DEP BOUNDS =      244424.7969       HEAD DEP BOUNDS =        1750.8457

           TOTAL OUT =      244424.7969             TOTAL OUT =        1750.8457

            IN - OUT =      -6.2500E-02              IN - OUT =       4.1504E-03

 PERCENT DISCREPANCY =          -0.00     PERCENT DISCREPANCY =           0.00






         TIME SUMMARY AT END OF TIME STEP   54 IN STRESS PERIOD    2
                    SECONDS     MINUTES      HOURS       DAYS        YEARS
                    -----------------------------------------------------------
   TIME STEP LENGTH  86400.      1440.0      24.000      1.0000     2.73785E-03
 STRESS PERIOD TIME 4.66560E+06  77760.      1296.0      54.000     0.14784    
         TOTAL TIME 4.75200E+06  79200.      1320.0      55.000     0.15058    
1
 
 SOLVING FOR HEAD 

 OUTPUT CONTROL FOR STRESS PERIOD    2   TIME STEP   55
    SAVE HEAD FOR ALL LAYERS
    SAVE DRAWDOWN FOR ALL LAYERS
    SAVE BUDGET
    PRINT HEAD FOR ALL LAYERS
    PRINT BUDGET
 UBDSV1 SAVING "         STORAGE" ON UNIT  53 AT TIME STEP 55, STRESS PERIOD   2
 UBDSV2 SAVING "   CONSTANT HEAD" ON UNIT  53 AT TIME STEP 55, STRESS PERIOD   2
 UBDSV1 SAVING "FLOW RIGHT FACE " ON UNIT  53 AT TIME STEP 55, STRESS PERIOD   2
 UBDSV1 SAVING "FLOW FRONT FACE " ON UNIT  53 AT TIME STEP 55, STRESS PERIOD   2
1
              HEAD IN LAYER   1 AT END OF TIME STEP  55 IN STRESS PERIOD    2
  ---------------------------------------------------------------------------

            1           2           3           4           5           6           7           8           9          10
 ........................................................................................................................
   1   10.000       9.975       9.923       9.797       9.510       8.920       7.828       6.024       3.388      3.4708E-02
   2   10.000       9.975       9.923       9.797       9.510       8.920       7.828       6.024       3.388      3.4708E-02
   3   10.000       9.975       9.923       9.797       9.510       8.920       7.828       6.024       3.388      3.4708E-02
   4   10.000       9.975       9.923       9.797       9.510       8.920       7.828       6.024       3.388      3.4708E-02
   5   10.000       9.975       9.923       9.797       9.510       8.920       7.828       6.024       3.388      3.4708E-02
   6   10.000       9.975       9.923       9.797       9.510       8.920       7.828       6.024       3.388      3.4708E-02
   7   10.000       9.975       9.923       9.797       9.510       8.920       7.828       6.024       3.388      3.4708E-02
   8   10.000       9.975       9.923       9.797       9.510       8.920       7.828       6.024       3.388      3.4708E-02
   9   10.000       9.975       9.923       9.797       9.510       8.920       7.828       6.024       3.388      3.4708E-02
  10   10.000       9.975       9.923       9.797       9.510       8.920       7.828       6.024       3.388      3.4708E-02

 HEAD WILL BE SAVED ON UNIT   51 AT END OF TIME STEP   55, STRESS PERIOD    2

 DRAWDOWN WILL BE SAVED ON UNIT   52 AT END OF TIME STEP   55, STRESS PERIOD    2
1
  VOLUMETRIC BUDGET FOR ENTIRE MODEL AT END OF TIME STEP   55, STRESS PERIOD   2
  ------------------------------------------------------------------------------

     CUMULATIVE VOLUMES      L**3       RATES FOR THIS TIME STEP      L**3/T
     ------------------                 ------------------------

           IN:                                      IN:
           ---                                      ---
             STORAGE =      245996.9844               STORAGE =        1720.8949
       CONSTANT HEAD =           0.0000         CONSTANT HEAD =           0.0000
               WELLS =           0.0000                 WELLS =           0.0000
     HEAD DEP BOUNDS =         163.1812       HEAD DEP BOUNDS =          14.5391

            TOTAL IN =      246160.1719              TOTAL IN =        1735.4340

          OUT:                                     OUT:
          ----                                     ----
             STORAGE =           0.0000               STORAGE =           0.0000
       CONSTANT HEAD =           0.0000         CONSTANT HEAD =           0.0000
               WELLS =           0.0000                 WELLS =           0.0000
     HEAD DEP BOUNDS =      246160.2188       HEAD DEP BOUNDS =        1735.4170

           TOTAL OUT =      246160.2188             TOTAL OUT =        1735.4170

            IN - OUT =      -4.6875E-02              IN - OUT =       1.6968E-02

 PERCENT DISCREPANCY =          -0.00     PERCENT DISCREPANCY =           0.00






         TIME SUMMARY AT END OF TIME STEP   55 IN STRESS PERIOD    2
                    SECONDS     MINUTES      HOURS       DAYS        YEARS
                    -----------------------------------------------------------
   TIME STEP LENGTH  86400.      1440.0      24.000      1.0000     2.73785E-03
 STRESS PERIOD TIME 4.75200E+06  79200.      1320.0      55.000     0.15058    
         TOTAL TIME 4.83840E+06  80640.      1344.0      56.000     0.15332    
1
 
 SOLVING FOR HEAD 

 OUTPUT CONTROL FOR STRESS PERIOD    2   TIME STEP   56
    SAVE HEAD FOR ALL LAYERS
    SAVE DRAWDOWN FOR ALL LAYERS
    SAVE BUDGET
    PRINT HEAD FOR ALL LAYERS
    PRINT BUDGET
 UBDSV1 SAVING "         STORAGE" ON UNIT  53 AT TIME STEP 56, STRESS PERIOD   2
 UBDSV2 SAVING "   CONSTANT HEAD" ON UNIT  53 AT TIME STEP 56, STRESS PERIOD   2
 UBDSV1 SAVING "FLOW RIGHT FACE " ON UNIT  53 AT TIME STEP 56, STRESS PERIOD   2
 UBDSV1 SAVING "FLOW FRONT FACE " ON UNIT  53 AT TIME STEP 56, STRESS PERIOD   2
1
              HEAD IN LAYER   1 AT END OF TIME STEP  56 IN STRESS PERIOD    2
  ---------------------------------------------------------------------------

            1           2           3           4           5           6           7           8           9          10
 ........................................................................................................................
   1   10.000       9.974       9.919       9.787       9.492       8.891       7.790       5.984       3.360      3.4408E-02
   2   10.000       9.974       9.919       9.787       9.492       8.891       7.790       5.984       3.360      3.4408E-02
   3   10.000       9.974       9.919       9.787       9.492       8.891       7.790       5.984       3.360      3.4408E-02
   4   10.000       9.974       9.919       9.787       9.492       8.891       7.790       5.984       3.360      3.4408E-02
   5   10.000       9.974       9.919       9.787       9.492       8.891       7.790       5.984       3.360      3.4408E-02
   6   10.000       9.974       9.919       9.787       9.492       8.891       7.790       5.984       3.360      3.4408E-02
   7   10.000       9.974       9.919       9.787       9.492       8.891       7.790       5.984       3.360      3.4408E-02
   8   10.000       9.974       9.919       9.787       9.492       8.891       7.790       5.984       3.360      3.4408E-02
   9   10.000       9.974       9.919       9.787       9.492       8.891       7.790       5.984       3.360      3.4408E-02
  10   10.000       9.974       9.919       9.787       9.492       8.891       7.790       5.984       3.360      3.4408E-02

 HEAD WILL BE SAVED ON UNIT   51 AT END OF TIME STEP   56, STRESS PERIOD    2

 DRAWDOWN WILL BE SAVED ON UNIT   52 AT END OF TIME STEP   56, STRESS PERIOD    2
1
  VOLUMETRIC BUDGET FOR ENTIRE MODEL AT END OF TIME STEP   56, STRESS PERIOD   2
  ------------------------------------------------------------------------------

     CUMULATIVE VOLUMES      L**3       RATES FOR THIS TIME STEP      L**3/T
     ------------------                 ------------------------

           IN:                                      IN:
           ---                                      ---
             STORAGE =      247701.8281               STORAGE =        1704.8442
       CONSTANT HEAD =           0.0000         CONSTANT HEAD =           0.0000
               WELLS =           0.0000                 WELLS =           0.0000
     HEAD DEP BOUNDS =         178.7329       HEAD DEP BOUNDS =          15.5517

            TOTAL IN =      247880.5625              TOTAL IN =        1720.3959

          OUT:                                     OUT:
          ----                                     ----
             STORAGE =           0.0000               STORAGE =           0.0000
       CONSTANT HEAD =           0.0000         CONSTANT HEAD =           0.0000
               WELLS =           0.0000                 WELLS =           0.0000
     HEAD DEP BOUNDS =      247880.6094       HEAD DEP BOUNDS =        1720.3894

           TOTAL OUT =      247880.6094             TOTAL OUT =        1720.3894

            IN - OUT =      -4.6875E-02              IN - OUT =       6.4697E-03

 PERCENT DISCREPANCY =          -0.00     PERCENT DISCREPANCY =           0.00






         TIME SUMMARY AT END OF TIME STEP   56 IN STRESS PERIOD    2
                    SECONDS     MINUTES      HOURS       DAYS        YEARS
                    -----------------------------------------------------------
   TIME STEP LENGTH  86400.      1440.0      24.000      1.0000     2.73785E-03
 STRESS PERIOD TIME 4.83840E+06  80640.      1344.0      56.000     0.15332    
         TOTAL TIME 4.92480E+06  82080.      1368.0      57.000     0.15606    
1
 
 SOLVING FOR HEAD 

 OUTPUT CONTROL FOR STRESS PERIOD    2   TIME STEP   57
    SAVE HEAD FOR ALL LAYERS
    SAVE DRAWDOWN FOR ALL LAYERS
    SAVE BUDGET
    PRINT HEAD FOR ALL LAYERS
    PRINT BUDGET
 UBDSV1 SAVING "         STORAGE" ON UNIT  53 AT TIME STEP 57, STRESS PERIOD   2
 UBDSV2 SAVING "   CONSTANT HEAD" ON UNIT  53 AT TIME STEP 57, STRESS PERIOD   2
 UBDSV1 SAVING "FLOW RIGHT FACE " ON UNIT  53 AT TIME STEP 57, STRESS PERIOD   2
 UBDSV1 SAVING "FLOW FRONT FACE " ON UNIT  53 AT TIME STEP 57, STRESS PERIOD   2
1
              HEAD IN LAYER   1 AT END OF TIME STEP  57 IN STRESS PERIOD    2
  ---------------------------------------------------------------------------

            1           2           3           4           5           6           7           8           9          10
 ........................................................................................................................
   1   10.000       9.972       9.914       9.777       9.474       8.863       7.752       5.944       3.332      3.4115E-02
   2   10.000       9.972       9.914       9.777       9.474       8.863       7.752       5.944       3.332      3.4115E-02
   3   10.000       9.972       9.914       9.777       9.474       8.863       7.752       5.944       3.332      3.4115E-02
   4   10.000       9.972       9.914       9.777       9.474       8.863       7.752       5.944       3.332      3.4115E-02
   5   10.000       9.972       9.914       9.777       9.474       8.863       7.752       5.944       3.332      3.4115E-02
   6   10.000       9.972       9.914       9.777       9.474       8.863       7.752       5.944       3.332      3.4115E-02
   7   10.000       9.972       9.914       9.777       9.474       8.863       7.752       5.944       3.332      3.4115E-02
   8   10.000       9.972       9.914       9.777       9.474       8.863       7.752       5.944       3.332      3.4115E-02
   9   10.000       9.972       9.914       9.777       9.474       8.863       7.752       5.944       3.332      3.4115E-02
  10   10.000       9.972       9.914       9.777       9.474       8.863       7.752       5.944       3.332      3.4115E-02

 HEAD WILL BE SAVED ON UNIT   51 AT END OF TIME STEP   57, STRESS PERIOD    2

 DRAWDOWN WILL BE SAVED ON UNIT   52 AT END OF TIME STEP   57, STRESS PERIOD    2
1
  VOLUMETRIC BUDGET FOR ENTIRE MODEL AT END OF TIME STEP   57, STRESS PERIOD   2
  ------------------------------------------------------------------------------

     CUMULATIVE VOLUMES      L**3       RATES FOR THIS TIME STEP      L**3/T
     ------------------                 ------------------------

           IN:                                      IN:
           ---                                      ---
             STORAGE =      249390.9531               STORAGE =        1689.1173
       CONSTANT HEAD =           0.0000         CONSTANT HEAD =           0.0000
               WELLS =           0.0000                 WELLS =           0.0000
     HEAD DEP BOUNDS =         195.3319       HEAD DEP BOUNDS =          16.5990

            TOTAL IN =      249586.2812              TOTAL IN =        1705.7163

          OUT:                                     OUT:
          ----                                     ----
             STORAGE =           0.0000               STORAGE =           0.0000
       CONSTANT HEAD =           0.0000         CONSTANT HEAD =           0.0000
               WELLS =           0.0000                 WELLS =           0.0000
     HEAD DEP BOUNDS =      249586.3438       HEAD DEP BOUNDS =        1705.7416

           TOTAL OUT =      249586.3438             TOTAL OUT =        1705.7416

            IN - OUT =      -6.2500E-02              IN - OUT =      -2.5269E-02

 PERCENT DISCREPANCY =          -0.00     PERCENT DISCREPANCY =          -0.00






         TIME SUMMARY AT END OF TIME STEP   57 IN STRESS PERIOD    2
                    SECONDS     MINUTES      HOURS       DAYS        YEARS
                    -----------------------------------------------------------
   TIME STEP LENGTH  86400.      1440.0      24.000      1.0000     2.73785E-03
 STRESS PERIOD TIME 4.92480E+06  82080.      1368.0      57.000     0.15606    
         TOTAL TIME 5.01120E+06  83520.      1392.0      58.000     0.15880    
1
 
 SOLVING FOR HEAD 

 OUTPUT CONTROL FOR STRESS PERIOD    2   TIME STEP   58
    SAVE HEAD FOR ALL LAYERS
    SAVE DRAWDOWN FOR ALL LAYERS
    SAVE BUDGET
    PRINT HEAD FOR ALL LAYERS
    PRINT BUDGET
 UBDSV1 SAVING "         STORAGE" ON UNIT  53 AT TIME STEP 58, STRESS PERIOD   2
 UBDSV2 SAVING "   CONSTANT HEAD" ON UNIT  53 AT TIME STEP 58, STRESS PERIOD   2
 UBDSV1 SAVING "FLOW RIGHT FACE " ON UNIT  53 AT TIME STEP 58, STRESS PERIOD   2
 UBDSV1 SAVING "FLOW FRONT FACE " ON UNIT  53 AT TIME STEP 58, STRESS PERIOD   2
1
              HEAD IN LAYER   1 AT END OF TIME STEP  58 IN STRESS PERIOD    2
  ---------------------------------------------------------------------------

            1           2           3           4           5           6           7           8           9          10
 ........................................................................................................................
   1   10.000       9.970       9.909       9.767       9.456       8.834       7.714       5.905       3.305      3.3829E-02
   2   10.000       9.970       9.909       9.767       9.456       8.834       7.714       5.905       3.305      3.3829E-02
   3   10.000       9.970       9.909       9.767       9.456       8.834       7.714       5.905       3.305      3.3829E-02
   4   10.000       9.970       9.909       9.767       9.456       8.834       7.714       5.905       3.305      3.3829E-02
   5   10.000       9.970       9.909       9.767       9.456       8.834       7.714       5.905       3.305      3.3829E-02
   6   10.000       9.970       9.909       9.767       9.456       8.834       7.714       5.905       3.305      3.3829E-02
   7   10.000       9.970       9.909       9.767       9.456       8.834       7.714       5.905       3.305      3.3829E-02
   8   10.000       9.970       9.909       9.767       9.456       8.834       7.714       5.905       3.305      3.3829E-02
   9   10.000       9.970       9.909       9.767       9.456       8.834       7.714       5.905       3.305      3.3829E-02
  10   10.000       9.970       9.909       9.767       9.456       8.834       7.714       5.905       3.305      3.3829E-02

 HEAD WILL BE SAVED ON UNIT   51 AT END OF TIME STEP   58, STRESS PERIOD    2

 DRAWDOWN WILL BE SAVED ON UNIT   52 AT END OF TIME STEP   58, STRESS PERIOD    2
1
  VOLUMETRIC BUDGET FOR ENTIRE MODEL AT END OF TIME STEP   58, STRESS PERIOD   2
  ------------------------------------------------------------------------------

     CUMULATIVE VOLUMES      L**3       RATES FOR THIS TIME STEP      L**3/T
     ------------------                 ------------------------

           IN:                                      IN:
           ---                                      ---
             STORAGE =      251064.7188               STORAGE =        1673.7593
       CONSTANT HEAD =           0.0000         CONSTANT HEAD =           0.0000
               WELLS =           0.0000                 WELLS =           0.0000
     HEAD DEP BOUNDS =         213.0121       HEAD DEP BOUNDS =          17.6802

            TOTAL IN =      251277.7344              TOTAL IN =        1691.4396

          OUT:                                     OUT:
          ----                                     ----
             STORAGE =           0.0000               STORAGE =           0.0000
       CONSTANT HEAD =           0.0000         CONSTANT HEAD =           0.0000
               WELLS =           0.0000                 WELLS =           0.0000
     HEAD DEP BOUNDS =      251277.8125       HEAD DEP BOUNDS =        1691.4681

           TOTAL OUT =      251277.8125             TOTAL OUT =        1691.4681

            IN - OUT =      -7.8125E-02              IN - OUT =      -2.8564E-02

 PERCENT DISCREPANCY =          -0.00     PERCENT DISCREPANCY =          -0.00






         TIME SUMMARY AT END OF TIME STEP   58 IN STRESS PERIOD    2
                    SECONDS     MINUTES      HOURS       DAYS        YEARS
                    -----------------------------------------------------------
   TIME STEP LENGTH  86400.      1440.0      24.000      1.0000     2.73785E-03
 STRESS PERIOD TIME 5.01120E+06  83520.      1392.0      58.000     0.15880    
         TOTAL TIME 5.09760E+06  84960.      1416.0      59.000     0.16153    
1
 
 SOLVING FOR HEAD 

 OUTPUT CONTROL FOR STRESS PERIOD    2   TIME STEP   59
    SAVE HEAD FOR ALL LAYERS
    SAVE DRAWDOWN FOR ALL LAYERS
    SAVE BUDGET
    PRINT HEAD FOR ALL LAYERS
    PRINT BUDGET
 UBDSV1 SAVING "         STORAGE" ON UNIT  53 AT TIME STEP 59, STRESS PERIOD   2
 UBDSV2 SAVING "   CONSTANT HEAD" ON UNIT  53 AT TIME STEP 59, STRESS PERIOD   2
 UBDSV1 SAVING "FLOW RIGHT FACE " ON UNIT  53 AT TIME STEP 59, STRESS PERIOD   2
 UBDSV1 SAVING "FLOW FRONT FACE " ON UNIT  53 AT TIME STEP 59, STRESS PERIOD   2
1
              HEAD IN LAYER   1 AT END OF TIME STEP  59 IN STRESS PERIOD    2
  ---------------------------------------------------------------------------

            1           2           3           4           5           6           7           8           9          10
 ........................................................................................................................
   1   10.000       9.968       9.904       9.757       9.437       8.806       7.677       5.866       3.279      3.3551E-02
   2   10.000       9.968       9.904       9.757       9.437       8.806       7.677       5.866       3.279      3.3551E-02
   3   10.000       9.968       9.904       9.757       9.437       8.806       7.677       5.866       3.279      3.3551E-02
   4   10.000       9.968       9.904       9.757       9.437       8.806       7.677       5.866       3.279      3.3551E-02
   5   10.000       9.968       9.904       9.757       9.437       8.806       7.677       5.866       3.279      3.3551E-02
   6   10.000       9.968       9.904       9.757       9.437       8.806       7.677       5.866       3.279      3.3551E-02
   7   10.000       9.968       9.904       9.757       9.437       8.806       7.677       5.866       3.279      3.3551E-02
   8   10.000       9.968       9.904       9.757       9.437       8.806       7.677       5.866       3.279      3.3551E-02
   9   10.000       9.968       9.904       9.757       9.437       8.806       7.677       5.866       3.279      3.3551E-02
  10   10.000       9.968       9.904       9.757       9.437       8.806       7.677       5.866       3.279      3.3551E-02

 HEAD WILL BE SAVED ON UNIT   51 AT END OF TIME STEP   59, STRESS PERIOD    2

 DRAWDOWN WILL BE SAVED ON UNIT   52 AT END OF TIME STEP   59, STRESS PERIOD    2
1
  VOLUMETRIC BUDGET FOR ENTIRE MODEL AT END OF TIME STEP   59, STRESS PERIOD   2
  ------------------------------------------------------------------------------

     CUMULATIVE VOLUMES      L**3       RATES FOR THIS TIME STEP      L**3/T
     ------------------                 ------------------------

           IN:                                      IN:
           ---                                      ---
             STORAGE =      252723.4219               STORAGE =        1658.6991
       CONSTANT HEAD =           0.0000         CONSTANT HEAD =           0.0000
               WELLS =           0.0000                 WELLS =           0.0000
     HEAD DEP BOUNDS =         231.8747       HEAD DEP BOUNDS =          18.8625

            TOTAL IN =      252955.2969              TOTAL IN =        1677.5616

          OUT:                                     OUT:
          ----                                     ----
             STORAGE =           0.0000               STORAGE =           0.0000
       CONSTANT HEAD =           0.0000         CONSTANT HEAD =           0.0000
               WELLS =           0.0000                 WELLS =           0.0000
     HEAD DEP BOUNDS =      252955.3594       HEAD DEP BOUNDS =        1677.5413

           TOTAL OUT =      252955.3594             TOTAL OUT =        1677.5413

            IN - OUT =      -6.2500E-02              IN - OUT =       2.0386E-02

 PERCENT DISCREPANCY =          -0.00     PERCENT DISCREPANCY =           0.00






         TIME SUMMARY AT END OF TIME STEP   59 IN STRESS PERIOD    2
                    SECONDS     MINUTES      HOURS       DAYS        YEARS
                    -----------------------------------------------------------
   TIME STEP LENGTH  86400.      1440.0      24.000      1.0000     2.73785E-03
 STRESS PERIOD TIME 5.09760E+06  84960.      1416.0      59.000     0.16153    
         TOTAL TIME 5.18400E+06  86400.      1440.0      60.000     0.16427    
1
 
 SOLVING FOR HEAD 

 OUTPUT CONTROL FOR STRESS PERIOD    2   TIME STEP   60
    SAVE HEAD FOR ALL LAYERS
    SAVE DRAWDOWN FOR ALL LAYERS
    SAVE BUDGET
    PRINT HEAD FOR ALL LAYERS
    PRINT BUDGET
 UBDSV1 SAVING "         STORAGE" ON UNIT  53 AT TIME STEP 60, STRESS PERIOD   2
 UBDSV2 SAVING "   CONSTANT HEAD" ON UNIT  53 AT TIME STEP 60, STRESS PERIOD   2
 UBDSV1 SAVING "FLOW RIGHT FACE " ON UNIT  53 AT TIME STEP 60, STRESS PERIOD   2
 UBDSV1 SAVING "FLOW FRONT FACE " ON UNIT  53 AT TIME STEP 60, STRESS PERIOD   2
1
              HEAD IN LAYER   1 AT END OF TIME STEP  60 IN STRESS PERIOD    2
  ---------------------------------------------------------------------------

            1           2           3           4           5           6           7           8           9          10
 ........................................................................................................................
   1   10.000       9.966       9.899       9.746       9.419       8.778       7.641       5.829       3.253      3.3279E-02
   2   10.000       9.966       9.899       9.746       9.419       8.778       7.641       5.829       3.253      3.3279E-02
   3   10.000       9.966       9.899       9.746       9.419       8.778       7.641       5.829       3.253      3.3279E-02
   4   10.000       9.966       9.899       9.746       9.419       8.778       7.641       5.829       3.253      3.3279E-02
   5   10.000       9.966       9.899       9.746       9.419       8.778       7.641       5.829       3.253      3.3279E-02
   6   10.000       9.966       9.899       9.746       9.419       8.778       7.641       5.829       3.253      3.3279E-02
   7   10.000       9.966       9.899       9.746       9.419       8.778       7.641       5.829       3.253      3.3279E-02
   8   10.000       9.966       9.899       9.746       9.419       8.778       7.641       5.829       3.253      3.3279E-02
   9   10.000       9.966       9.899       9.746       9.419       8.778       7.641       5.829       3.253      3.3279E-02
  10   10.000       9.966       9.899       9.746       9.419       8.778       7.641       5.829       3.253      3.3279E-02

 HEAD WILL BE SAVED ON UNIT   51 AT END OF TIME STEP   60, STRESS PERIOD    2

 DRAWDOWN WILL BE SAVED ON UNIT   52 AT END OF TIME STEP   60, STRESS PERIOD    2
1
  VOLUMETRIC BUDGET FOR ENTIRE MODEL AT END OF TIME STEP   60, STRESS PERIOD   2
  ------------------------------------------------------------------------------

     CUMULATIVE VOLUMES      L**3       RATES FOR THIS TIME STEP      L**3/T
     ------------------                 ------------------------

           IN:                                      IN:
           ---                                      ---
             STORAGE =      254367.3281               STORAGE =        1643.9110
       CONSTANT HEAD =           0.0000         CONSTANT HEAD =           0.0000
               WELLS =           0.0000                 WELLS =           0.0000
     HEAD DEP BOUNDS =         251.8872       HEAD DEP BOUNDS =          20.0126

            TOTAL IN =      254619.2188              TOTAL IN =        1663.9236

          OUT:                                     OUT:
          ----                                     ----
             STORAGE =           0.0000               STORAGE =           0.0000
       CONSTANT HEAD =           0.0000         CONSTANT HEAD =           0.0000
               WELLS =           0.0000                 WELLS =           0.0000
     HEAD DEP BOUNDS =      254619.2969       HEAD DEP BOUNDS =        1663.9410

           TOTAL OUT =      254619.2969             TOTAL OUT =        1663.9410

            IN - OUT =      -7.8125E-02              IN - OUT =      -1.7456E-02

 PERCENT DISCREPANCY =          -0.00     PERCENT DISCREPANCY =          -0.00






         TIME SUMMARY AT END OF TIME STEP   60 IN STRESS PERIOD    2
                    SECONDS     MINUTES      HOURS       DAYS        YEARS
                    -----------------------------------------------------------
   TIME STEP LENGTH  86400.      1440.0      24.000      1.0000     2.73785E-03
 STRESS PERIOD TIME 5.18400E+06  86400.      1440.0      60.000     0.16427    
         TOTAL TIME 5.27040E+06  87840.      1464.0      61.000     0.16701    
1
 
 SOLVING FOR HEAD 

 OUTPUT CONTROL FOR STRESS PERIOD    2   TIME STEP   61
    SAVE HEAD FOR ALL LAYERS
    SAVE DRAWDOWN FOR ALL LAYERS
    SAVE BUDGET
    PRINT HEAD FOR ALL LAYERS
    PRINT BUDGET
 UBDSV1 SAVING "         STORAGE" ON UNIT  53 AT TIME STEP 61, STRESS PERIOD   2
 UBDSV2 SAVING "   CONSTANT HEAD" ON UNIT  53 AT TIME STEP 61, STRESS PERIOD   2
 UBDSV1 SAVING "FLOW RIGHT FACE " ON UNIT  53 AT TIME STEP 61, STRESS PERIOD   2
 UBDSV1 SAVING "FLOW FRONT FACE " ON UNIT  53 AT TIME STEP 61, STRESS PERIOD   2
1
              HEAD IN LAYER   1 AT END OF TIME STEP  61 IN STRESS PERIOD    2
  ---------------------------------------------------------------------------

            1           2           3           4           5           6           7           8           9          10
 ........................................................................................................................
   1   10.000       9.964       9.894       9.736       9.401       8.749       7.604       5.792       3.228      3.3013E-02
   2   10.000       9.964       9.894       9.736       9.401       8.749       7.604       5.792       3.228      3.3013E-02
   3   10.000       9.964       9.894       9.736       9.401       8.749       7.604       5.792       3.228      3.3013E-02
   4   10.000       9.964       9.894       9.736       9.401       8.749       7.604       5.792       3.228      3.3013E-02
   5   10.000       9.964       9.894       9.736       9.401       8.749       7.604       5.792       3.228      3.3013E-02
   6   10.000       9.964       9.894       9.736       9.401       8.749       7.604       5.792       3.228      3.3013E-02
   7   10.000       9.964       9.894       9.736       9.401       8.749       7.604       5.792       3.228      3.3013E-02
   8   10.000       9.964       9.894       9.736       9.401       8.749       7.604       5.792       3.228      3.3013E-02
   9   10.000       9.964       9.894       9.736       9.401       8.749       7.604       5.792       3.228      3.3013E-02
  10   10.000       9.964       9.894       9.736       9.401       8.749       7.604       5.792       3.228      3.3013E-02

 HEAD WILL BE SAVED ON UNIT   51 AT END OF TIME STEP   61, STRESS PERIOD    2

 DRAWDOWN WILL BE SAVED ON UNIT   52 AT END OF TIME STEP   61, STRESS PERIOD    2
1
  VOLUMETRIC BUDGET FOR ENTIRE MODEL AT END OF TIME STEP   61, STRESS PERIOD   2
  ------------------------------------------------------------------------------

     CUMULATIVE VOLUMES      L**3       RATES FOR THIS TIME STEP      L**3/T
     ------------------                 ------------------------

           IN:                                      IN:
           ---                                      ---
             STORAGE =      255996.7344               STORAGE =        1629.4092
       CONSTANT HEAD =           0.0000         CONSTANT HEAD =           0.0000
               WELLS =           0.0000                 WELLS =           0.0000
     HEAD DEP BOUNDS =         273.1503       HEAD DEP BOUNDS =          21.2631

            TOTAL IN =      256269.8906              TOTAL IN =        1650.6722

          OUT:                                     OUT:
          ----                                     ----
             STORAGE =           0.0000               STORAGE =           0.0000
       CONSTANT HEAD =           0.0000         CONSTANT HEAD =           0.0000
               WELLS =           0.0000                 WELLS =           0.0000
     HEAD DEP BOUNDS =      256269.9688       HEAD DEP BOUNDS =        1650.6644

           TOTAL OUT =      256269.9688             TOTAL OUT =        1650.6644

            IN - OUT =      -7.8125E-02              IN - OUT =       7.8125E-03

 PERCENT DISCREPANCY =          -0.00     PERCENT DISCREPANCY =           0.00






         TIME SUMMARY AT END OF TIME STEP   61 IN STRESS PERIOD    2
                    SECONDS     MINUTES      HOURS       DAYS        YEARS
                    -----------------------------------------------------------
   TIME STEP LENGTH  86400.      1440.0      24.000      1.0000     2.73785E-03
 STRESS PERIOD TIME 5.27040E+06  87840.      1464.0      61.000     0.16701    
         TOTAL TIME 5.35680E+06  89280.      1488.0      62.000     0.16975    
1
 
 SOLVING FOR HEAD 

 OUTPUT CONTROL FOR STRESS PERIOD    2   TIME STEP   62
    SAVE HEAD FOR ALL LAYERS
    SAVE DRAWDOWN FOR ALL LAYERS
    SAVE BUDGET
    PRINT HEAD FOR ALL LAYERS
    PRINT BUDGET
 UBDSV1 SAVING "         STORAGE" ON UNIT  53 AT TIME STEP 62, STRESS PERIOD   2
 UBDSV2 SAVING "   CONSTANT HEAD" ON UNIT  53 AT TIME STEP 62, STRESS PERIOD   2
 UBDSV1 SAVING "FLOW RIGHT FACE " ON UNIT  53 AT TIME STEP 62, STRESS PERIOD   2
 UBDSV1 SAVING "FLOW FRONT FACE " ON UNIT  53 AT TIME STEP 62, STRESS PERIOD   2
1
              HEAD IN LAYER   1 AT END OF TIME STEP  62 IN STRESS PERIOD    2
  ---------------------------------------------------------------------------

            1           2           3           4           5           6           7           8           9          10
 ........................................................................................................................
   1   10.000       9.962       9.888       9.725       9.382       8.721       7.569       5.756       3.203      3.2754E-02
   2   10.000       9.962       9.888       9.725       9.382       8.721       7.569       5.756       3.203      3.2754E-02
   3   10.000       9.962       9.888       9.725       9.382       8.721       7.569       5.756       3.203      3.2754E-02
   4   10.000       9.962       9.888       9.725       9.382       8.721       7.569       5.756       3.203      3.2754E-02
   5   10.000       9.962       9.888       9.725       9.382       8.721       7.569       5.756       3.203      3.2754E-02
   6   10.000       9.962       9.888       9.725       9.382       8.721       7.569       5.756       3.203      3.2754E-02
   7   10.000       9.962       9.888       9.725       9.382       8.721       7.569       5.756       3.203      3.2754E-02
   8   10.000       9.962       9.888       9.725       9.382       8.721       7.569       5.756       3.203      3.2754E-02
   9   10.000       9.962       9.888       9.725       9.382       8.721       7.569       5.756       3.203      3.2754E-02
  10   10.000       9.962       9.888       9.725       9.382       8.721       7.569       5.756       3.203      3.2754E-02

 HEAD WILL BE SAVED ON UNIT   51 AT END OF TIME STEP   62, STRESS PERIOD    2

 DRAWDOWN WILL BE SAVED ON UNIT   52 AT END OF TIME STEP   62, STRESS PERIOD    2
1
  VOLUMETRIC BUDGET FOR ENTIRE MODEL AT END OF TIME STEP   62, STRESS PERIOD   2
  ------------------------------------------------------------------------------

     CUMULATIVE VOLUMES      L**3       RATES FOR THIS TIME STEP      L**3/T
     ------------------                 ------------------------

           IN:                                      IN:
           ---                                      ---
             STORAGE =      257611.9375               STORAGE =        1615.2037
       CONSTANT HEAD =           0.0000         CONSTANT HEAD =           0.0000
               WELLS =           0.0000                 WELLS =           0.0000
     HEAD DEP BOUNDS =         295.6315       HEAD DEP BOUNDS =          22.4812

            TOTAL IN =      257907.5625              TOTAL IN =        1637.6849

          OUT:                                     OUT:
          ----                                     ----
             STORAGE =           0.0000               STORAGE =           0.0000
       CONSTANT HEAD =           0.0000         CONSTANT HEAD =           0.0000
               WELLS =           0.0000                 WELLS =           0.0000
     HEAD DEP BOUNDS =      257907.6719       HEAD DEP BOUNDS =        1637.7095

           TOTAL OUT =      257907.6719             TOTAL OUT =        1637.7095

            IN - OUT =          -0.1094              IN - OUT =      -2.4536E-02

 PERCENT DISCREPANCY =          -0.00     PERCENT DISCREPANCY =          -0.00






         TIME SUMMARY AT END OF TIME STEP   62 IN STRESS PERIOD    2
                    SECONDS     MINUTES      HOURS       DAYS        YEARS
                    -----------------------------------------------------------
   TIME STEP LENGTH  86400.      1440.0      24.000      1.0000     2.73785E-03
 STRESS PERIOD TIME 5.35680E+06  89280.      1488.0      62.000     0.16975    
         TOTAL TIME 5.44320E+06  90720.      1512.0      63.000     0.17248    
1
 
 SOLVING FOR HEAD 

 OUTPUT CONTROL FOR STRESS PERIOD    2   TIME STEP   63
    SAVE HEAD FOR ALL LAYERS
    SAVE DRAWDOWN FOR ALL LAYERS
    SAVE BUDGET
    PRINT HEAD FOR ALL LAYERS
    PRINT BUDGET
 UBDSV1 SAVING "         STORAGE" ON UNIT  53 AT TIME STEP 63, STRESS PERIOD   2
 UBDSV2 SAVING "   CONSTANT HEAD" ON UNIT  53 AT TIME STEP 63, STRESS PERIOD   2
 UBDSV1 SAVING "FLOW RIGHT FACE " ON UNIT  53 AT TIME STEP 63, STRESS PERIOD   2
 UBDSV1 SAVING "FLOW FRONT FACE " ON UNIT  53 AT TIME STEP 63, STRESS PERIOD   2
1
              HEAD IN LAYER   1 AT END OF TIME STEP  63 IN STRESS PERIOD    2
  ---------------------------------------------------------------------------

            1           2           3           4           5           6           7           8           9          10
 ........................................................................................................................
   1   10.000       9.960       9.883       9.714       9.363       8.694       7.533       5.720       3.179      3.2501E-02
   2   10.000       9.960       9.883       9.714       9.363       8.694       7.533       5.720       3.179      3.2501E-02
   3   10.000       9.960       9.883       9.714       9.363       8.694       7.533       5.720       3.179      3.2501E-02
   4   10.000       9.960       9.883       9.714       9.363       8.694       7.533       5.720       3.179      3.2501E-02
   5   10.000       9.960       9.883       9.714       9.363       8.694       7.533       5.720       3.179      3.2501E-02
   6   10.000       9.960       9.883       9.714       9.363       8.694       7.533       5.720       3.179      3.2501E-02
   7   10.000       9.960       9.883       9.714       9.363       8.694       7.533       5.720       3.179      3.2501E-02
   8   10.000       9.960       9.883       9.714       9.363       8.694       7.533       5.720       3.179      3.2501E-02
   9   10.000       9.960       9.883       9.714       9.363       8.694       7.533       5.720       3.179      3.2501E-02
  10   10.000       9.960       9.883       9.714       9.363       8.694       7.533       5.720       3.179      3.2501E-02

 HEAD WILL BE SAVED ON UNIT   51 AT END OF TIME STEP   63, STRESS PERIOD    2

 DRAWDOWN WILL BE SAVED ON UNIT   52 AT END OF TIME STEP   63, STRESS PERIOD    2
1
  VOLUMETRIC BUDGET FOR ENTIRE MODEL AT END OF TIME STEP   63, STRESS PERIOD   2
  ------------------------------------------------------------------------------

     CUMULATIVE VOLUMES      L**3       RATES FOR THIS TIME STEP      L**3/T
     ------------------                 ------------------------

           IN:                                      IN:
           ---                                      ---
             STORAGE =      259213.1719               STORAGE =        1601.2419
       CONSTANT HEAD =           0.0000         CONSTANT HEAD =           0.0000
               WELLS =           0.0000                 WELLS =           0.0000
     HEAD DEP BOUNDS =         319.4308       HEAD DEP BOUNDS =          23.7993

            TOTAL IN =      259532.6094              TOTAL IN =        1625.0413

          OUT:                                     OUT:
          ----                                     ----
             STORAGE =           0.0000               STORAGE =           0.0000
       CONSTANT HEAD =           0.0000         CONSTANT HEAD =           0.0000
               WELLS =           0.0000                 WELLS =           0.0000
     HEAD DEP BOUNDS =      259532.7188       HEAD DEP BOUNDS =        1625.0424

           TOTAL OUT =      259532.7188             TOTAL OUT =        1625.0424

            IN - OUT =          -0.1094              IN - OUT =      -1.0986E-03

 PERCENT DISCREPANCY =          -0.00     PERCENT DISCREPANCY =          -0.00






         TIME SUMMARY AT END OF TIME STEP   63 IN STRESS PERIOD    2
                    SECONDS     MINUTES      HOURS       DAYS        YEARS
                    -----------------------------------------------------------
   TIME STEP LENGTH  86400.      1440.0      24.000      1.0000     2.73785E-03
 STRESS PERIOD TIME 5.44320E+06  90720.      1512.0      63.000     0.17248    
         TOTAL TIME 5.52960E+06  92160.      1536.0      64.000     0.17522    
1
 
 SOLVING FOR HEAD 

 OUTPUT CONTROL FOR STRESS PERIOD    2   TIME STEP   64
    SAVE HEAD FOR ALL LAYERS
    SAVE DRAWDOWN FOR ALL LAYERS
    SAVE BUDGET
    PRINT HEAD FOR ALL LAYERS
    PRINT BUDGET
 UBDSV1 SAVING "         STORAGE" ON UNIT  53 AT TIME STEP 64, STRESS PERIOD   2
 UBDSV2 SAVING "   CONSTANT HEAD" ON UNIT  53 AT TIME STEP 64, STRESS PERIOD   2
 UBDSV1 SAVING "FLOW RIGHT FACE " ON UNIT  53 AT TIME STEP 64, STRESS PERIOD   2
 UBDSV1 SAVING "FLOW FRONT FACE " ON UNIT  53 AT TIME STEP 64, STRESS PERIOD   2
1
              HEAD IN LAYER   1 AT END OF TIME STEP  64 IN STRESS PERIOD    2
  ---------------------------------------------------------------------------

            1           2           3           4           5           6           7           8           9          10
 ........................................................................................................................
   1   10.000       9.957       9.877       9.703       9.345       8.666       7.499       5.685       3.156      3.2253E-02
   2   10.000       9.957       9.877       9.703       9.345       8.666       7.499       5.685       3.156      3.2253E-02
   3   10.000       9.957       9.877       9.703       9.345       8.666       7.499       5.685       3.156      3.2253E-02
   4   10.000       9.957       9.877       9.703       9.345       8.666       7.499       5.685       3.156      3.2253E-02
   5   10.000       9.957       9.877       9.703       9.345       8.666       7.499       5.685       3.156      3.2253E-02
   6   10.000       9.957       9.877       9.703       9.345       8.666       7.499       5.685       3.156      3.2253E-02
   7   10.000       9.957       9.877       9.703       9.345       8.666       7.499       5.685       3.156      3.2253E-02
   8   10.000       9.957       9.877       9.703       9.345       8.666       7.499       5.685       3.156      3.2253E-02
   9   10.000       9.957       9.877       9.703       9.345       8.666       7.499       5.685       3.156      3.2253E-02
  10   10.000       9.957       9.877       9.703       9.345       8.666       7.499       5.685       3.156      3.2253E-02

 HEAD WILL BE SAVED ON UNIT   51 AT END OF TIME STEP   64, STRESS PERIOD    2

 DRAWDOWN WILL BE SAVED ON UNIT   52 AT END OF TIME STEP   64, STRESS PERIOD    2
1
  VOLUMETRIC BUDGET FOR ENTIRE MODEL AT END OF TIME STEP   64, STRESS PERIOD   2
  ------------------------------------------------------------------------------

     CUMULATIVE VOLUMES      L**3       RATES FOR THIS TIME STEP      L**3/T
     ------------------                 ------------------------

           IN:                                      IN:
           ---                                      ---
             STORAGE =      260800.7188               STORAGE =        1587.5416
       CONSTANT HEAD =           0.0000         CONSTANT HEAD =           0.0000
               WELLS =           0.0000                 WELLS =           0.0000
     HEAD DEP BOUNDS =         344.5812       HEAD DEP BOUNDS =          25.1504

            TOTAL IN =      261145.2969              TOTAL IN =        1612.6920

          OUT:                                     OUT:
          ----                                     ----
             STORAGE =           0.0000               STORAGE =           0.0000
       CONSTANT HEAD =           0.0000         CONSTANT HEAD =           0.0000
               WELLS =           0.0000                 WELLS =           0.0000
     HEAD DEP BOUNDS =      261145.3906       HEAD DEP BOUNDS =        1612.6696

           TOTAL OUT =      261145.3906             TOTAL OUT =        1612.6696

            IN - OUT =      -9.3750E-02              IN - OUT =       2.2461E-02

 PERCENT DISCREPANCY =          -0.00     PERCENT DISCREPANCY =           0.00






         TIME SUMMARY AT END OF TIME STEP   64 IN STRESS PERIOD    2
                    SECONDS     MINUTES      HOURS       DAYS        YEARS
                    -----------------------------------------------------------
   TIME STEP LENGTH  86400.      1440.0      24.000      1.0000     2.73785E-03
 STRESS PERIOD TIME 5.52960E+06  92160.      1536.0      64.000     0.17522    
         TOTAL TIME 5.61600E+06  93600.      1560.0      65.000     0.17796    
1
 
 SOLVING FOR HEAD 

 OUTPUT CONTROL FOR STRESS PERIOD    2   TIME STEP   65
    SAVE HEAD FOR ALL LAYERS
    SAVE DRAWDOWN FOR ALL LAYERS
    SAVE BUDGET
    PRINT HEAD FOR ALL LAYERS
    PRINT BUDGET
 UBDSV1 SAVING "         STORAGE" ON UNIT  53 AT TIME STEP 65, STRESS PERIOD   2
 UBDSV2 SAVING "   CONSTANT HEAD" ON UNIT  53 AT TIME STEP 65, STRESS PERIOD   2
 UBDSV1 SAVING "FLOW RIGHT FACE " ON UNIT  53 AT TIME STEP 65, STRESS PERIOD   2
 UBDSV1 SAVING "FLOW FRONT FACE " ON UNIT  53 AT TIME STEP 65, STRESS PERIOD   2
1
              HEAD IN LAYER   1 AT END OF TIME STEP  65 IN STRESS PERIOD    2
  ---------------------------------------------------------------------------

            1           2           3           4           5           6           7           8           9          10
 ........................................................................................................................
   1   10.000       9.955       9.872       9.692       9.326       8.638       7.464       5.651       3.133      3.2011E-02
   2   10.000       9.955       9.872       9.692       9.326       8.638       7.464       5.651       3.133      3.2011E-02
   3   10.000       9.955       9.872       9.692       9.326       8.638       7.464       5.651       3.133      3.2011E-02
   4   10.000       9.955       9.872       9.692       9.326       8.638       7.464       5.651       3.133      3.2011E-02
   5   10.000       9.955       9.872       9.692       9.326       8.638       7.464       5.651       3.133      3.2011E-02
   6   10.000       9.955       9.872       9.692       9.326       8.638       7.464       5.651       3.133      3.2011E-02
   7   10.000       9.955       9.872       9.692       9.326       8.638       7.464       5.651       3.133      3.2011E-02
   8   10.000       9.955       9.872       9.692       9.326       8.638       7.464       5.651       3.133      3.2011E-02
   9   10.000       9.955       9.872       9.692       9.326       8.638       7.464       5.651       3.133      3.2011E-02
  10   10.000       9.955       9.872       9.692       9.326       8.638       7.464       5.651       3.133      3.2011E-02

 HEAD WILL BE SAVED ON UNIT   51 AT END OF TIME STEP   65, STRESS PERIOD    2

 DRAWDOWN WILL BE SAVED ON UNIT   52 AT END OF TIME STEP   65, STRESS PERIOD    2
1
  VOLUMETRIC BUDGET FOR ENTIRE MODEL AT END OF TIME STEP   65, STRESS PERIOD   2
  ------------------------------------------------------------------------------

     CUMULATIVE VOLUMES      L**3       RATES FOR THIS TIME STEP      L**3/T
     ------------------                 ------------------------

           IN:                                      IN:
           ---                                      ---
             STORAGE =      262374.7812               STORAGE =        1574.0732
       CONSTANT HEAD =           0.0000         CONSTANT HEAD =           0.0000
               WELLS =           0.0000                 WELLS =           0.0000
     HEAD DEP BOUNDS =         371.1157       HEAD DEP BOUNDS =          26.5345

            TOTAL IN =      262745.9062              TOTAL IN =        1600.6077

          OUT:                                     OUT:
          ----                                     ----
             STORAGE =           0.0000               STORAGE =           0.0000
       CONSTANT HEAD =           0.0000         CONSTANT HEAD =           0.0000
               WELLS =           0.0000                 WELLS =           0.0000
     HEAD DEP BOUNDS =      262745.9688       HEAD DEP BOUNDS =        1600.5665

           TOTAL OUT =      262745.9688             TOTAL OUT =        1600.5665

            IN - OUT =      -6.2500E-02              IN - OUT =       4.1138E-02

 PERCENT DISCREPANCY =          -0.00     PERCENT DISCREPANCY =           0.00






         TIME SUMMARY AT END OF TIME STEP   65 IN STRESS PERIOD    2
                    SECONDS     MINUTES      HOURS       DAYS        YEARS
                    -----------------------------------------------------------
   TIME STEP LENGTH  86400.      1440.0      24.000      1.0000     2.73785E-03
 STRESS PERIOD TIME 5.61600E+06  93600.      1560.0      65.000     0.17796    
         TOTAL TIME 5.70240E+06  95040.      1584.0      66.000     0.18070    
1
 
 SOLVING FOR HEAD 

 OUTPUT CONTROL FOR STRESS PERIOD    2   TIME STEP   66
    SAVE HEAD FOR ALL LAYERS
    SAVE DRAWDOWN FOR ALL LAYERS
    SAVE BUDGET
    PRINT HEAD FOR ALL LAYERS
    PRINT BUDGET
 UBDSV1 SAVING "         STORAGE" ON UNIT  53 AT TIME STEP 66, STRESS PERIOD   2
 UBDSV2 SAVING "   CONSTANT HEAD" ON UNIT  53 AT TIME STEP 66, STRESS PERIOD   2
 UBDSV1 SAVING "FLOW RIGHT FACE " ON UNIT  53 AT TIME STEP 66, STRESS PERIOD   2
 UBDSV1 SAVING "FLOW FRONT FACE " ON UNIT  53 AT TIME STEP 66, STRESS PERIOD   2
1
              HEAD IN LAYER   1 AT END OF TIME STEP  66 IN STRESS PERIOD    2
  ---------------------------------------------------------------------------

            1           2           3           4           5           6           7           8           9          10
 ........................................................................................................................
   1   10.000       9.953       9.866       9.681       9.307       8.611       7.430       5.617       3.111      3.1775E-02
   2   10.000       9.953       9.866       9.681       9.307       8.611       7.430       5.617       3.111      3.1775E-02
   3   10.000       9.953       9.866       9.681       9.307       8.611       7.430       5.617       3.111      3.1775E-02
   4   10.000       9.953       9.866       9.681       9.307       8.611       7.430       5.617       3.111      3.1775E-02
   5   10.000       9.953       9.866       9.681       9.307       8.611       7.430       5.617       3.111      3.1775E-02
   6   10.000       9.953       9.866       9.681       9.307       8.611       7.430       5.617       3.111      3.1775E-02
   7   10.000       9.953       9.866       9.681       9.307       8.611       7.430       5.617       3.111      3.1775E-02
   8   10.000       9.953       9.866       9.681       9.307       8.611       7.430       5.617       3.111      3.1775E-02
   9   10.000       9.953       9.866       9.681       9.307       8.611       7.430       5.617       3.111      3.1775E-02
  10   10.000       9.953       9.866       9.681       9.307       8.611       7.430       5.617       3.111      3.1775E-02

 HEAD WILL BE SAVED ON UNIT   51 AT END OF TIME STEP   66, STRESS PERIOD    2

 DRAWDOWN WILL BE SAVED ON UNIT   52 AT END OF TIME STEP   66, STRESS PERIOD    2
1
  VOLUMETRIC BUDGET FOR ENTIRE MODEL AT END OF TIME STEP   66, STRESS PERIOD   2
  ------------------------------------------------------------------------------

     CUMULATIVE VOLUMES      L**3       RATES FOR THIS TIME STEP      L**3/T
     ------------------                 ------------------------

           IN:                                      IN:
           ---                                      ---
             STORAGE =      263935.5938               STORAGE =        1560.8156
       CONSTANT HEAD =           0.0000         CONSTANT HEAD =           0.0000
               WELLS =           0.0000                 WELLS =           0.0000
     HEAD DEP BOUNDS =         399.0670       HEAD DEP BOUNDS =          27.9514

            TOTAL IN =      264334.6562              TOTAL IN =        1588.7670

          OUT:                                     OUT:
          ----                                     ----
             STORAGE =           0.0000               STORAGE =           0.0000
       CONSTANT HEAD =           0.0000         CONSTANT HEAD =           0.0000
               WELLS =           0.0000                 WELLS =           0.0000
     HEAD DEP BOUNDS =      264334.6875       HEAD DEP BOUNDS =        1588.7327

           TOTAL OUT =      264334.6875             TOTAL OUT =        1588.7327

            IN - OUT =      -3.1250E-02              IN - OUT =       3.4302E-02

 PERCENT DISCREPANCY =          -0.00     PERCENT DISCREPANCY =           0.00






         TIME SUMMARY AT END OF TIME STEP   66 IN STRESS PERIOD    2
                    SECONDS     MINUTES      HOURS       DAYS        YEARS
                    -----------------------------------------------------------
   TIME STEP LENGTH  86400.      1440.0      24.000      1.0000     2.73785E-03
 STRESS PERIOD TIME 5.70240E+06  95040.      1584.0      66.000     0.18070    
         TOTAL TIME 5.78880E+06  96480.      1608.0      67.000     0.18344    
1
 
 SOLVING FOR HEAD 

 OUTPUT CONTROL FOR STRESS PERIOD    2   TIME STEP   67
    SAVE HEAD FOR ALL LAYERS
    SAVE DRAWDOWN FOR ALL LAYERS
    SAVE BUDGET
    PRINT HEAD FOR ALL LAYERS
    PRINT BUDGET
 UBDSV1 SAVING "         STORAGE" ON UNIT  53 AT TIME STEP 67, STRESS PERIOD   2
 UBDSV2 SAVING "   CONSTANT HEAD" ON UNIT  53 AT TIME STEP 67, STRESS PERIOD   2
 UBDSV1 SAVING "FLOW RIGHT FACE " ON UNIT  53 AT TIME STEP 67, STRESS PERIOD   2
 UBDSV1 SAVING "FLOW FRONT FACE " ON UNIT  53 AT TIME STEP 67, STRESS PERIOD   2
1
              HEAD IN LAYER   1 AT END OF TIME STEP  67 IN STRESS PERIOD    2
  ---------------------------------------------------------------------------

            1           2           3           4           5           6           7           8           9          10
 ........................................................................................................................
   1   10.000       9.950       9.860       9.670       9.288       8.583       7.397       5.584       3.089      3.1543E-02
   2   10.000       9.950       9.860       9.670       9.288       8.583       7.397       5.584       3.089      3.1543E-02
   3   10.000       9.950       9.860       9.670       9.288       8.583       7.397       5.584       3.089      3.1543E-02
   4   10.000       9.950       9.860       9.670       9.288       8.583       7.397       5.584       3.089      3.1543E-02
   5   10.000       9.950       9.860       9.670       9.288       8.583       7.397       5.584       3.089      3.1543E-02
   6   10.000       9.950       9.860       9.670       9.288       8.583       7.397       5.584       3.089      3.1543E-02
   7   10.000       9.950       9.860       9.670       9.288       8.583       7.397       5.584       3.089      3.1543E-02
   8   10.000       9.950       9.860       9.670       9.288       8.583       7.397       5.584       3.089      3.1543E-02
   9   10.000       9.950       9.860       9.670       9.288       8.583       7.397       5.584       3.089      3.1543E-02
  10   10.000       9.950       9.860       9.670       9.288       8.583       7.397       5.584       3.089      3.1543E-02

 HEAD WILL BE SAVED ON UNIT   51 AT END OF TIME STEP   67, STRESS PERIOD    2

 DRAWDOWN WILL BE SAVED ON UNIT   52 AT END OF TIME STEP   67, STRESS PERIOD    2
1
  VOLUMETRIC BUDGET FOR ENTIRE MODEL AT END OF TIME STEP   67, STRESS PERIOD   2
  ------------------------------------------------------------------------------

     CUMULATIVE VOLUMES      L**3       RATES FOR THIS TIME STEP      L**3/T
     ------------------                 ------------------------

           IN:                                      IN:
           ---                                      ---
             STORAGE =      265483.4062               STORAGE =        1547.8019
       CONSTANT HEAD =           0.0000         CONSTANT HEAD =           0.0000
               WELLS =           0.0000                 WELLS =           0.0000
     HEAD DEP BOUNDS =         428.4672       HEAD DEP BOUNDS =          29.4002

            TOTAL IN =      265911.8750              TOTAL IN =        1577.2020

          OUT:                                     OUT:
          ----                                     ----
             STORAGE =           0.0000               STORAGE =           0.0000
       CONSTANT HEAD =           0.0000         CONSTANT HEAD =           0.0000
               WELLS =           0.0000                 WELLS =           0.0000
     HEAD DEP BOUNDS =      265911.8438       HEAD DEP BOUNDS =        1577.1604

           TOTAL OUT =      265911.8438             TOTAL OUT =        1577.1604

            IN - OUT =       3.1250E-02              IN - OUT =       4.1626E-02

 PERCENT DISCREPANCY =           0.00     PERCENT DISCREPANCY =           0.00






         TIME SUMMARY AT END OF TIME STEP   67 IN STRESS PERIOD    2
                    SECONDS     MINUTES      HOURS       DAYS        YEARS
                    -----------------------------------------------------------
   TIME STEP LENGTH  86400.      1440.0      24.000      1.0000     2.73785E-03
 STRESS PERIOD TIME 5.78880E+06  96480.      1608.0      67.000     0.18344    
         TOTAL TIME 5.87520E+06  97920.      1632.0      68.000     0.18617    
1
 
 SOLVING FOR HEAD 

 OUTPUT CONTROL FOR STRESS PERIOD    2   TIME STEP   68
    SAVE HEAD FOR ALL LAYERS
    SAVE DRAWDOWN FOR ALL LAYERS
    SAVE BUDGET
    PRINT HEAD FOR ALL LAYERS
    PRINT BUDGET
 UBDSV1 SAVING "         STORAGE" ON UNIT  53 AT TIME STEP 68, STRESS PERIOD   2
 UBDSV2 SAVING "   CONSTANT HEAD" ON UNIT  53 AT TIME STEP 68, STRESS PERIOD   2
 UBDSV1 SAVING "FLOW RIGHT FACE " ON UNIT  53 AT TIME STEP 68, STRESS PERIOD   2
 UBDSV1 SAVING "FLOW FRONT FACE " ON UNIT  53 AT TIME STEP 68, STRESS PERIOD   2
1
              HEAD IN LAYER   1 AT END OF TIME STEP  68 IN STRESS PERIOD    2
  ---------------------------------------------------------------------------

            1           2           3           4           5           6           7           8           9          10
 ........................................................................................................................
   1    9.999       9.948       9.854       9.658       9.269       8.556       7.364       5.551       3.067      3.1317E-02
   2    9.999       9.948       9.854       9.658       9.269       8.556       7.364       5.551       3.067      3.1317E-02
   3    9.999       9.948       9.854       9.658       9.269       8.556       7.364       5.551       3.067      3.1317E-02
   4    9.999       9.948       9.854       9.658       9.269       8.556       7.364       5.551       3.067      3.1317E-02
   5    9.999       9.948       9.854       9.658       9.269       8.556       7.364       5.551       3.067      3.1317E-02
   6    9.999       9.948       9.854       9.658       9.269       8.556       7.364       5.551       3.067      3.1317E-02
   7    9.999       9.948       9.854       9.658       9.269       8.556       7.364       5.551       3.067      3.1317E-02
   8    9.999       9.948       9.854       9.658       9.269       8.556       7.364       5.551       3.067      3.1317E-02
   9    9.999       9.948       9.854       9.658       9.269       8.556       7.364       5.551       3.067      3.1317E-02
  10    9.999       9.948       9.854       9.658       9.269       8.556       7.364       5.551       3.067      3.1317E-02

 HEAD WILL BE SAVED ON UNIT   51 AT END OF TIME STEP   68, STRESS PERIOD    2

 DRAWDOWN WILL BE SAVED ON UNIT   52 AT END OF TIME STEP   68, STRESS PERIOD    2
1
  VOLUMETRIC BUDGET FOR ENTIRE MODEL AT END OF TIME STEP   68, STRESS PERIOD   2
  ------------------------------------------------------------------------------

     CUMULATIVE VOLUMES      L**3       RATES FOR THIS TIME STEP      L**3/T
     ------------------                 ------------------------

           IN:                                      IN:
           ---                                      ---
             STORAGE =      267018.4062               STORAGE =        1534.9911
       CONSTANT HEAD =           0.0000         CONSTANT HEAD =           0.0000
               WELLS =           0.0000                 WELLS =           0.0000
     HEAD DEP BOUNDS =         459.3476       HEAD DEP BOUNDS =          30.8804

            TOTAL IN =      267477.7500              TOTAL IN =        1565.8715

          OUT:                                     OUT:
          ----                                     ----
             STORAGE =           0.0000               STORAGE =           0.0000
       CONSTANT HEAD =           0.0000         CONSTANT HEAD =           0.0000
               WELLS =           0.0000                 WELLS =           0.0000
     HEAD DEP BOUNDS =      267477.6875       HEAD DEP BOUNDS =        1565.8344

           TOTAL OUT =      267477.6875             TOTAL OUT =        1565.8344

            IN - OUT =       6.2500E-02              IN - OUT =       3.7109E-02

 PERCENT DISCREPANCY =           0.00     PERCENT DISCREPANCY =           0.00






         TIME SUMMARY AT END OF TIME STEP   68 IN STRESS PERIOD    2
                    SECONDS     MINUTES      HOURS       DAYS        YEARS
                    -----------------------------------------------------------
   TIME STEP LENGTH  86400.      1440.0      24.000      1.0000     2.73785E-03
 STRESS PERIOD TIME 5.87520E+06  97920.      1632.0      68.000     0.18617    
         TOTAL TIME 5.96160E+06  99360.      1656.0      69.000     0.18891    
1
 
 SOLVING FOR HEAD 

 OUTPUT CONTROL FOR STRESS PERIOD    2   TIME STEP   69
    SAVE HEAD FOR ALL LAYERS
    SAVE DRAWDOWN FOR ALL LAYERS
    SAVE BUDGET
    PRINT HEAD FOR ALL LAYERS
    PRINT BUDGET
 UBDSV1 SAVING "         STORAGE" ON UNIT  53 AT TIME STEP 69, STRESS PERIOD   2
 UBDSV2 SAVING "   CONSTANT HEAD" ON UNIT  53 AT TIME STEP 69, STRESS PERIOD   2
 UBDSV1 SAVING "FLOW RIGHT FACE " ON UNIT  53 AT TIME STEP 69, STRESS PERIOD   2
 UBDSV1 SAVING "FLOW FRONT FACE " ON UNIT  53 AT TIME STEP 69, STRESS PERIOD   2
1
              HEAD IN LAYER   1 AT END OF TIME STEP  69 IN STRESS PERIOD    2
  ---------------------------------------------------------------------------

            1           2           3           4           5           6           7           8           9          10
 ........................................................................................................................
   1    9.999       9.945       9.848       9.647       9.250       8.529       7.331       5.519       3.046      3.1095E-02
   2    9.999       9.945       9.848       9.647       9.250       8.529       7.331       5.519       3.046      3.1095E-02
   3    9.999       9.945       9.848       9.647       9.250       8.529       7.331       5.519       3.046      3.1095E-02
   4    9.999       9.945       9.848       9.647       9.250       8.529       7.331       5.519       3.046      3.1095E-02
   5    9.999       9.945       9.848       9.647       9.250       8.529       7.331       5.519       3.046      3.1095E-02
   6    9.999       9.945       9.848       9.647       9.250       8.529       7.331       5.519       3.046      3.1095E-02
   7    9.999       9.945       9.848       9.647       9.250       8.529       7.331       5.519       3.046      3.1095E-02
   8    9.999       9.945       9.848       9.647       9.250       8.529       7.331       5.519       3.046      3.1095E-02
   9    9.999       9.945       9.848       9.647       9.250       8.529       7.331       5.519       3.046      3.1095E-02
  10    9.999       9.945       9.848       9.647       9.250       8.529       7.331       5.519       3.046      3.1095E-02

 HEAD WILL BE SAVED ON UNIT   51 AT END OF TIME STEP   69, STRESS PERIOD    2

 DRAWDOWN WILL BE SAVED ON UNIT   52 AT END OF TIME STEP   69, STRESS PERIOD    2
1
  VOLUMETRIC BUDGET FOR ENTIRE MODEL AT END OF TIME STEP   69, STRESS PERIOD   2
  ------------------------------------------------------------------------------

     CUMULATIVE VOLUMES      L**3       RATES FOR THIS TIME STEP      L**3/T
     ------------------                 ------------------------

           IN:                                      IN:
           ---                                      ---
             STORAGE =      268540.7500               STORAGE =        1522.3571
       CONSTANT HEAD =           0.0000         CONSTANT HEAD =           0.0000
               WELLS =           0.0000                 WELLS =           0.0000
     HEAD DEP BOUNDS =         491.7394       HEAD DEP BOUNDS =          32.3918

            TOTAL IN =      269032.5000              TOTAL IN =        1554.7489

          OUT:                                     OUT:
          ----                                     ----
             STORAGE =           0.0000               STORAGE =           0.0000
       CONSTANT HEAD =           0.0000         CONSTANT HEAD =           0.0000
               WELLS =           0.0000                 WELLS =           0.0000
     HEAD DEP BOUNDS =      269032.4375       HEAD DEP BOUNDS =        1554.7466

           TOTAL OUT =      269032.4375             TOTAL OUT =        1554.7466

            IN - OUT =       6.2500E-02              IN - OUT =       2.3193E-03

 PERCENT DISCREPANCY =           0.00     PERCENT DISCREPANCY =           0.00






         TIME SUMMARY AT END OF TIME STEP   69 IN STRESS PERIOD    2
                    SECONDS     MINUTES      HOURS       DAYS        YEARS
                    -----------------------------------------------------------
   TIME STEP LENGTH  86400.      1440.0      24.000      1.0000     2.73785E-03
 STRESS PERIOD TIME 5.96160E+06  99360.      1656.0      69.000     0.18891    
         TOTAL TIME 6.04800E+06 1.00800E+05  1680.0      70.000     0.19165    
1
 
 SOLVING FOR HEAD 

 OUTPUT CONTROL FOR STRESS PERIOD    2   TIME STEP   70
    SAVE HEAD FOR ALL LAYERS
    SAVE DRAWDOWN FOR ALL LAYERS
    SAVE BUDGET
    PRINT HEAD FOR ALL LAYERS
    PRINT BUDGET
 UBDSV1 SAVING "         STORAGE" ON UNIT  53 AT TIME STEP 70, STRESS PERIOD   2
 UBDSV2 SAVING "   CONSTANT HEAD" ON UNIT  53 AT TIME STEP 70, STRESS PERIOD   2
 UBDSV1 SAVING "FLOW RIGHT FACE " ON UNIT  53 AT TIME STEP 70, STRESS PERIOD   2
 UBDSV1 SAVING "FLOW FRONT FACE " ON UNIT  53 AT TIME STEP 70, STRESS PERIOD   2
1
              HEAD IN LAYER   1 AT END OF TIME STEP  70 IN STRESS PERIOD    2
  ---------------------------------------------------------------------------

            1           2           3           4           5           6           7           8           9          10
 ........................................................................................................................
   1    9.999       9.942       9.841       9.635       9.232       8.503       7.298       5.488       3.025      3.0878E-02
   2    9.999       9.942       9.841       9.635       9.232       8.503       7.298       5.488       3.025      3.0878E-02
   3    9.999       9.942       9.841       9.635       9.232       8.503       7.298       5.488       3.025      3.0878E-02
   4    9.999       9.942       9.841       9.635       9.232       8.503       7.298       5.488       3.025      3.0878E-02
   5    9.999       9.942       9.841       9.635       9.232       8.503       7.298       5.488       3.025      3.0878E-02
   6    9.999       9.942       9.841       9.635       9.232       8.503       7.298       5.488       3.025      3.0878E-02
   7    9.999       9.942       9.841       9.635       9.232       8.503       7.298       5.488       3.025      3.0878E-02
   8    9.999       9.942       9.841       9.635       9.232       8.503       7.298       5.488       3.025      3.0878E-02
   9    9.999       9.942       9.841       9.635       9.232       8.503       7.298       5.488       3.025      3.0878E-02
  10    9.999       9.942       9.841       9.635       9.232       8.503       7.298       5.488       3.025      3.0878E-02

 HEAD WILL BE SAVED ON UNIT   51 AT END OF TIME STEP   70, STRESS PERIOD    2

 DRAWDOWN WILL BE SAVED ON UNIT   52 AT END OF TIME STEP   70, STRESS PERIOD    2
1
  VOLUMETRIC BUDGET FOR ENTIRE MODEL AT END OF TIME STEP   70, STRESS PERIOD   2
  ------------------------------------------------------------------------------

     CUMULATIVE VOLUMES      L**3       RATES FOR THIS TIME STEP      L**3/T
     ------------------                 ------------------------

           IN:                                      IN:
           ---                                      ---
             STORAGE =      270050.6875               STORAGE =        1509.9274
       CONSTANT HEAD =           0.0000         CONSTANT HEAD =           0.0000
               WELLS =           0.0000                 WELLS =           0.0000
     HEAD DEP BOUNDS =         525.6730       HEAD DEP BOUNDS =          33.9336

            TOTAL IN =      270576.3750              TOTAL IN =        1543.8610

          OUT:                                     OUT:
          ----                                     ----
             STORAGE =           0.0000               STORAGE =           0.0000
       CONSTANT HEAD =           0.0000         CONSTANT HEAD =           0.0000
               WELLS =           0.0000                 WELLS =           0.0000
     HEAD DEP BOUNDS =      270576.3438       HEAD DEP BOUNDS =        1543.8909

           TOTAL OUT =      270576.3438             TOTAL OUT =        1543.8909

            IN - OUT =       3.1250E-02              IN - OUT =      -2.9907E-02

 PERCENT DISCREPANCY =           0.00     PERCENT DISCREPANCY =          -0.00






         TIME SUMMARY AT END OF TIME STEP   70 IN STRESS PERIOD    2
                    SECONDS     MINUTES      HOURS       DAYS        YEARS
                    -----------------------------------------------------------
   TIME STEP LENGTH  86400.      1440.0      24.000      1.0000     2.73785E-03
 STRESS PERIOD TIME 6.04800E+06 1.00800E+05  1680.0      70.000     0.19165    
         TOTAL TIME 6.13440E+06 1.02240E+05  1704.0      71.000     0.19439    
1
 
 SOLVING FOR HEAD 

 OUTPUT CONTROL FOR STRESS PERIOD    2   TIME STEP   71
    SAVE HEAD FOR ALL LAYERS
    SAVE DRAWDOWN FOR ALL LAYERS
    SAVE BUDGET
    PRINT HEAD FOR ALL LAYERS
    PRINT BUDGET
 UBDSV1 SAVING "         STORAGE" ON UNIT  53 AT TIME STEP 71, STRESS PERIOD   2
 UBDSV2 SAVING "   CONSTANT HEAD" ON UNIT  53 AT TIME STEP 71, STRESS PERIOD   2
 UBDSV1 SAVING "FLOW RIGHT FACE " ON UNIT  53 AT TIME STEP 71, STRESS PERIOD   2
 UBDSV1 SAVING "FLOW FRONT FACE " ON UNIT  53 AT TIME STEP 71, STRESS PERIOD   2
1
              HEAD IN LAYER   1 AT END OF TIME STEP  71 IN STRESS PERIOD    2
  ---------------------------------------------------------------------------

            1           2           3           4           5           6           7           8           9          10
 ........................................................................................................................
   1    9.999       9.940       9.835       9.623       9.213       8.476       7.266       5.457       3.005      3.0665E-02
   2    9.999       9.940       9.835       9.623       9.213       8.476       7.266       5.457       3.005      3.0665E-02
   3    9.999       9.940       9.835       9.623       9.213       8.476       7.266       5.457       3.005      3.0665E-02
   4    9.999       9.940       9.835       9.623       9.213       8.476       7.266       5.457       3.005      3.0665E-02
   5    9.999       9.940       9.835       9.623       9.213       8.476       7.266       5.457       3.005      3.0665E-02
   6    9.999       9.940       9.835       9.623       9.213       8.476       7.266       5.457       3.005      3.0665E-02
   7    9.999       9.940       9.835       9.623       9.213       8.476       7.266       5.457       3.005      3.0665E-02
   8    9.999       9.940       9.835       9.623       9.213       8.476       7.266       5.457       3.005      3.0665E-02
   9    9.999       9.940       9.835       9.623       9.213       8.476       7.266       5.457       3.005      3.0665E-02
  10    9.999       9.940       9.835       9.623       9.213       8.476       7.266       5.457       3.005      3.0665E-02

 HEAD WILL BE SAVED ON UNIT   51 AT END OF TIME STEP   71, STRESS PERIOD    2

 DRAWDOWN WILL BE SAVED ON UNIT   52 AT END OF TIME STEP   71, STRESS PERIOD    2
1
  VOLUMETRIC BUDGET FOR ENTIRE MODEL AT END OF TIME STEP   71, STRESS PERIOD   2
  ------------------------------------------------------------------------------

     CUMULATIVE VOLUMES      L**3       RATES FOR THIS TIME STEP      L**3/T
     ------------------                 ------------------------

           IN:                                      IN:
           ---                                      ---
             STORAGE =      271548.4062               STORAGE =        1497.7302
       CONSTANT HEAD =           0.0000         CONSTANT HEAD =           0.0000
               WELLS =           0.0000                 WELLS =           0.0000
     HEAD DEP BOUNDS =         561.1786       HEAD DEP BOUNDS =          35.5057

            TOTAL IN =      272109.5938              TOTAL IN =        1533.2358

          OUT:                                     OUT:
          ----                                     ----
             STORAGE =           0.0000               STORAGE =           0.0000
       CONSTANT HEAD =           0.0000         CONSTANT HEAD =           0.0000
               WELLS =           0.0000                 WELLS =           0.0000
     HEAD DEP BOUNDS =      272109.5938       HEAD DEP BOUNDS =        1533.2605

           TOTAL OUT =      272109.5938             TOTAL OUT =        1533.2605

            IN - OUT =           0.0000              IN - OUT =      -2.4658E-02

 PERCENT DISCREPANCY =           0.00     PERCENT DISCREPANCY =          -0.00






         TIME SUMMARY AT END OF TIME STEP   71 IN STRESS PERIOD    2
                    SECONDS     MINUTES      HOURS       DAYS        YEARS
                    -----------------------------------------------------------
   TIME STEP LENGTH  86400.      1440.0      24.000      1.0000     2.73785E-03
 STRESS PERIOD TIME 6.13440E+06 1.02240E+05  1704.0      71.000     0.19439    
         TOTAL TIME 6.22080E+06 1.03680E+05  1728.0      72.000     0.19713    
1
 
 SOLVING FOR HEAD 

 OUTPUT CONTROL FOR STRESS PERIOD    2   TIME STEP   72
    SAVE HEAD FOR ALL LAYERS
    SAVE DRAWDOWN FOR ALL LAYERS
    SAVE BUDGET
    PRINT HEAD FOR ALL LAYERS
    PRINT BUDGET
 UBDSV1 SAVING "         STORAGE" ON UNIT  53 AT TIME STEP 72, STRESS PERIOD   2
 UBDSV2 SAVING "   CONSTANT HEAD" ON UNIT  53 AT TIME STEP 72, STRESS PERIOD   2
 UBDSV1 SAVING "FLOW RIGHT FACE " ON UNIT  53 AT TIME STEP 72, STRESS PERIOD   2
 UBDSV1 SAVING "FLOW FRONT FACE " ON UNIT  53 AT TIME STEP 72, STRESS PERIOD   2
1
              HEAD IN LAYER   1 AT END OF TIME STEP  72 IN STRESS PERIOD    2
  ---------------------------------------------------------------------------

            1           2           3           4           5           6           7           8           9          10
 ........................................................................................................................
   1    9.999       9.937       9.828       9.611       9.194       8.449       7.235       5.426       2.985      3.0457E-02
   2    9.999       9.937       9.828       9.611       9.194       8.449       7.235       5.426       2.985      3.0457E-02
   3    9.999       9.937       9.828       9.611       9.194       8.449       7.235       5.426       2.985      3.0457E-02
   4    9.999       9.937       9.828       9.611       9.194       8.449       7.235       5.426       2.985      3.0457E-02
   5    9.999       9.937       9.828       9.611       9.194       8.449       7.235       5.426       2.985      3.0457E-02
   6    9.999       9.937       9.828       9.611       9.194       8.449       7.235       5.426       2.985      3.0457E-02
   7    9.999       9.937       9.828       9.611       9.194       8.449       7.235       5.426       2.985      3.0457E-02
   8    9.999       9.937       9.828       9.611       9.194       8.449       7.235       5.426       2.985      3.0457E-02
   9    9.999       9.937       9.828       9.611       9.194       8.449       7.235       5.426       2.985      3.0457E-02
  10    9.999       9.937       9.828       9.611       9.194       8.449       7.235       5.426       2.985      3.0457E-02

 HEAD WILL BE SAVED ON UNIT   51 AT END OF TIME STEP   72, STRESS PERIOD    2

 DRAWDOWN WILL BE SAVED ON UNIT   52 AT END OF TIME STEP   72, STRESS PERIOD    2
1
  VOLUMETRIC BUDGET FOR ENTIRE MODEL AT END OF TIME STEP   72, STRESS PERIOD   2
  ------------------------------------------------------------------------------

     CUMULATIVE VOLUMES      L**3       RATES FOR THIS TIME STEP      L**3/T
     ------------------                 ------------------------

           IN:                                      IN:
           ---                                      ---
             STORAGE =      273034.0625               STORAGE =        1485.6658
       CONSTANT HEAD =           0.0000         CONSTANT HEAD =           0.0000
               WELLS =           0.0000                 WELLS =           0.0000
     HEAD DEP BOUNDS =         598.3521       HEAD DEP BOUNDS =          37.1734

            TOTAL IN =      273632.4062              TOTAL IN =        1522.8392

          OUT:                                     OUT:
          ----                                     ----
             STORAGE =           0.0000               STORAGE =           0.0000
       CONSTANT HEAD =           0.0000         CONSTANT HEAD =           0.0000
               WELLS =           0.0000                 WELLS =           0.0000
     HEAD DEP BOUNDS =      273632.4375       HEAD DEP BOUNDS =        1522.8412

           TOTAL OUT =      273632.4375             TOTAL OUT =        1522.8412

            IN - OUT =      -3.1250E-02              IN - OUT =      -1.9531E-03

 PERCENT DISCREPANCY =          -0.00     PERCENT DISCREPANCY =          -0.00






         TIME SUMMARY AT END OF TIME STEP   72 IN STRESS PERIOD    2
                    SECONDS     MINUTES      HOURS       DAYS        YEARS
                    -----------------------------------------------------------
   TIME STEP LENGTH  86400.      1440.0      24.000      1.0000     2.73785E-03
 STRESS PERIOD TIME 6.22080E+06 1.03680E+05  1728.0      72.000     0.19713    
         TOTAL TIME 6.30720E+06 1.05120E+05  1752.0      73.000     0.19986    
1
 
 SOLVING FOR HEAD 

 OUTPUT CONTROL FOR STRESS PERIOD    2   TIME STEP   73
    SAVE HEAD FOR ALL LAYERS
    SAVE DRAWDOWN FOR ALL LAYERS
    SAVE BUDGET
    PRINT HEAD FOR ALL LAYERS
    PRINT BUDGET
 UBDSV1 SAVING "         STORAGE" ON UNIT  53 AT TIME STEP 73, STRESS PERIOD   2
 UBDSV2 SAVING "   CONSTANT HEAD" ON UNIT  53 AT TIME STEP 73, STRESS PERIOD   2
 UBDSV1 SAVING "FLOW RIGHT FACE " ON UNIT  53 AT TIME STEP 73, STRESS PERIOD   2
 UBDSV1 SAVING "FLOW FRONT FACE " ON UNIT  53 AT TIME STEP 73, STRESS PERIOD   2
1
              HEAD IN LAYER   1 AT END OF TIME STEP  73 IN STRESS PERIOD    2
  ---------------------------------------------------------------------------

            1           2           3           4           5           6           7           8           9          10
 ........................................................................................................................
   1    9.999       9.934       9.822       9.600       9.175       8.423       7.204       5.397       2.966      3.0253E-02
   2    9.999       9.934       9.822       9.600       9.175       8.423       7.204       5.397       2.966      3.0253E-02
   3    9.999       9.934       9.822       9.600       9.175       8.423       7.204       5.397       2.966      3.0253E-02
   4    9.999       9.934       9.822       9.600       9.175       8.423       7.204       5.397       2.966      3.0253E-02
   5    9.999       9.934       9.822       9.600       9.175       8.423       7.204       5.397       2.966      3.0253E-02
   6    9.999       9.934       9.822       9.600       9.175       8.423       7.204       5.397       2.966      3.0253E-02
   7    9.999       9.934       9.822       9.600       9.175       8.423       7.204       5.397       2.966      3.0253E-02
   8    9.999       9.934       9.822       9.600       9.175       8.423       7.204       5.397       2.966      3.0253E-02
   9    9.999       9.934       9.822       9.600       9.175       8.423       7.204       5.397       2.966      3.0253E-02
  10    9.999       9.934       9.822       9.600       9.175       8.423       7.204       5.397       2.966      3.0253E-02

 HEAD WILL BE SAVED ON UNIT   51 AT END OF TIME STEP   73, STRESS PERIOD    2

 DRAWDOWN WILL BE SAVED ON UNIT   52 AT END OF TIME STEP   73, STRESS PERIOD    2
1
  VOLUMETRIC BUDGET FOR ENTIRE MODEL AT END OF TIME STEP   73, STRESS PERIOD   2
  ------------------------------------------------------------------------------

     CUMULATIVE VOLUMES      L**3       RATES FOR THIS TIME STEP      L**3/T
     ------------------                 ------------------------

           IN:                                      IN:
           ---                                      ---
             STORAGE =      274507.8750               STORAGE =        1473.8065
       CONSTANT HEAD =           0.0000         CONSTANT HEAD =           0.0000
               WELLS =           0.0000                 WELLS =           0.0000
     HEAD DEP BOUNDS =         637.1564       HEAD DEP BOUNDS =          38.8044

            TOTAL IN =      275145.0312              TOTAL IN =        1512.6110

          OUT:                                     OUT:
          ----                                     ----
             STORAGE =           0.0000               STORAGE =           0.0000
       CONSTANT HEAD =           0.0000         CONSTANT HEAD =           0.0000
               WELLS =           0.0000                 WELLS =           0.0000
     HEAD DEP BOUNDS =      275145.0625       HEAD DEP BOUNDS =        1512.6351

           TOTAL OUT =      275145.0625             TOTAL OUT =        1512.6351

            IN - OUT =      -3.1250E-02              IN - OUT =      -2.4170E-02

 PERCENT DISCREPANCY =          -0.00     PERCENT DISCREPANCY =          -0.00






         TIME SUMMARY AT END OF TIME STEP   73 IN STRESS PERIOD    2
                    SECONDS     MINUTES      HOURS       DAYS        YEARS
                    -----------------------------------------------------------
   TIME STEP LENGTH  86400.      1440.0      24.000      1.0000     2.73785E-03
 STRESS PERIOD TIME 6.30720E+06 1.05120E+05  1752.0      73.000     0.19986    
         TOTAL TIME 6.39360E+06 1.06560E+05  1776.0      74.000     0.20260    
1
 
 SOLVING FOR HEAD 

 OUTPUT CONTROL FOR STRESS PERIOD    2   TIME STEP   74
    SAVE HEAD FOR ALL LAYERS
    SAVE DRAWDOWN FOR ALL LAYERS
    SAVE BUDGET
    PRINT HEAD FOR ALL LAYERS
    PRINT BUDGET
 UBDSV1 SAVING "         STORAGE" ON UNIT  53 AT TIME STEP 74, STRESS PERIOD   2
 UBDSV2 SAVING "   CONSTANT HEAD" ON UNIT  53 AT TIME STEP 74, STRESS PERIOD   2
 UBDSV1 SAVING "FLOW RIGHT FACE " ON UNIT  53 AT TIME STEP 74, STRESS PERIOD   2
 UBDSV1 SAVING "FLOW FRONT FACE " ON UNIT  53 AT TIME STEP 74, STRESS PERIOD   2
1
              HEAD IN LAYER   1 AT END OF TIME STEP  74 IN STRESS PERIOD    2
  ---------------------------------------------------------------------------

            1           2           3           4           5           6           7           8           9          10
 ........................................................................................................................
   1    9.999       9.931       9.815       9.588       9.156       8.397       7.173       5.367       2.947      3.0053E-02
   2    9.999       9.931       9.815       9.588       9.156       8.397       7.173       5.367       2.947      3.0053E-02
   3    9.999       9.931       9.815       9.588       9.156       8.397       7.173       5.367       2.947      3.0053E-02
   4    9.999       9.931       9.815       9.588       9.156       8.397       7.173       5.367       2.947      3.0053E-02
   5    9.999       9.931       9.815       9.588       9.156       8.397       7.173       5.367       2.947      3.0053E-02
   6    9.999       9.931       9.815       9.588       9.156       8.397       7.173       5.367       2.947      3.0053E-02
   7    9.999       9.931       9.815       9.588       9.156       8.397       7.173       5.367       2.947      3.0053E-02
   8    9.999       9.931       9.815       9.588       9.156       8.397       7.173       5.367       2.947      3.0053E-02
   9    9.999       9.931       9.815       9.588       9.156       8.397       7.173       5.367       2.947      3.0053E-02
  10    9.999       9.931       9.815       9.588       9.156       8.397       7.173       5.367       2.947      3.0053E-02

 HEAD WILL BE SAVED ON UNIT   51 AT END OF TIME STEP   74, STRESS PERIOD    2

 DRAWDOWN WILL BE SAVED ON UNIT   52 AT END OF TIME STEP   74, STRESS PERIOD    2
1
  VOLUMETRIC BUDGET FOR ENTIRE MODEL AT END OF TIME STEP   74, STRESS PERIOD   2
  ------------------------------------------------------------------------------

     CUMULATIVE VOLUMES      L**3       RATES FOR THIS TIME STEP      L**3/T
     ------------------                 ------------------------

           IN:                                      IN:
           ---                                      ---
             STORAGE =      275970.0000               STORAGE =        1462.1160
       CONSTANT HEAD =           0.0000         CONSTANT HEAD =           0.0000
               WELLS =           0.0000                 WELLS =           0.0000
     HEAD DEP BOUNDS =         677.6865       HEAD DEP BOUNDS =          40.5300

            TOTAL IN =      276647.6875              TOTAL IN =        1502.6460

          OUT:                                     OUT:
          ----                                     ----
             STORAGE =           0.0000               STORAGE =           0.0000
       CONSTANT HEAD =           0.0000         CONSTANT HEAD =           0.0000
               WELLS =           0.0000                 WELLS =           0.0000
     HEAD DEP BOUNDS =      276647.6875       HEAD DEP BOUNDS =        1502.6285

           TOTAL OUT =      276647.6875             TOTAL OUT =        1502.6285

            IN - OUT =           0.0000              IN - OUT =       1.7456E-02

 PERCENT DISCREPANCY =           0.00     PERCENT DISCREPANCY =           0.00






         TIME SUMMARY AT END OF TIME STEP   74 IN STRESS PERIOD    2
                    SECONDS     MINUTES      HOURS       DAYS        YEARS
                    -----------------------------------------------------------
   TIME STEP LENGTH  86400.      1440.0      24.000      1.0000     2.73785E-03
 STRESS PERIOD TIME 6.39360E+06 1.06560E+05  1776.0      74.000     0.20260    
         TOTAL TIME 6.48000E+06 1.08000E+05  1800.0      75.000     0.20534    
1
 
 SOLVING FOR HEAD 

 OUTPUT CONTROL FOR STRESS PERIOD    2   TIME STEP   75
    SAVE HEAD FOR ALL LAYERS
    SAVE DRAWDOWN FOR ALL LAYERS
    SAVE BUDGET
    PRINT HEAD FOR ALL LAYERS
    PRINT BUDGET
 UBDSV1 SAVING "         STORAGE" ON UNIT  53 AT TIME STEP 75, STRESS PERIOD   2
 UBDSV2 SAVING "   CONSTANT HEAD" ON UNIT  53 AT TIME STEP 75, STRESS PERIOD   2
 UBDSV1 SAVING "FLOW RIGHT FACE " ON UNIT  53 AT TIME STEP 75, STRESS PERIOD   2
 UBDSV1 SAVING "FLOW FRONT FACE " ON UNIT  53 AT TIME STEP 75, STRESS PERIOD   2
1
              HEAD IN LAYER   1 AT END OF TIME STEP  75 IN STRESS PERIOD    2
  ---------------------------------------------------------------------------

            1           2           3           4           5           6           7           8           9          10
 ........................................................................................................................
   1    9.999       9.928       9.809       9.575       9.137       8.371       7.142       5.338       2.928      2.9856E-02
   2    9.999       9.928       9.809       9.575       9.137       8.371       7.142       5.338       2.928      2.9856E-02
   3    9.999       9.928       9.809       9.575       9.137       8.371       7.142       5.338       2.928      2.9856E-02
   4    9.999       9.928       9.809       9.575       9.137       8.371       7.142       5.338       2.928      2.9856E-02
   5    9.999       9.928       9.809       9.575       9.137       8.371       7.142       5.338       2.928      2.9856E-02
   6    9.999       9.928       9.809       9.575       9.137       8.371       7.142       5.338       2.928      2.9856E-02
   7    9.999       9.928       9.809       9.575       9.137       8.371       7.142       5.338       2.928      2.9856E-02
   8    9.999       9.928       9.809       9.575       9.137       8.371       7.142       5.338       2.928      2.9856E-02
   9    9.999       9.928       9.809       9.575       9.137       8.371       7.142       5.338       2.928      2.9856E-02
  10    9.999       9.928       9.809       9.575       9.137       8.371       7.142       5.338       2.928      2.9856E-02

 HEAD WILL BE SAVED ON UNIT   51 AT END OF TIME STEP   75, STRESS PERIOD    2

 DRAWDOWN WILL BE SAVED ON UNIT   52 AT END OF TIME STEP   75, STRESS PERIOD    2
1
  VOLUMETRIC BUDGET FOR ENTIRE MODEL AT END OF TIME STEP   75, STRESS PERIOD   2
  ------------------------------------------------------------------------------

     CUMULATIVE VOLUMES      L**3       RATES FOR THIS TIME STEP      L**3/T
     ------------------                 ------------------------

           IN:                                      IN:
           ---                                      ---
             STORAGE =      277420.5625               STORAGE =        1450.5562
       CONSTANT HEAD =           0.0000         CONSTANT HEAD =           0.0000
               WELLS =           0.0000                 WELLS =           0.0000
     HEAD DEP BOUNDS =         719.9034       HEAD DEP BOUNDS =          42.2169

            TOTAL IN =      278140.4688              TOTAL IN =        1492.7731

          OUT:                                     OUT:
          ----                                     ----
             STORAGE =           0.0000               STORAGE =           0.0000
       CONSTANT HEAD =           0.0000         CONSTANT HEAD =           0.0000
               WELLS =           0.0000                 WELLS =           0.0000
     HEAD DEP BOUNDS =      278140.5000       HEAD DEP BOUNDS =        1492.8082

           TOTAL OUT =      278140.5000             TOTAL OUT =        1492.8082

            IN - OUT =      -3.1250E-02              IN - OUT =      -3.5156E-02

 PERCENT DISCREPANCY =          -0.00     PERCENT DISCREPANCY =          -0.00






         TIME SUMMARY AT END OF TIME STEP   75 IN STRESS PERIOD    2
                    SECONDS     MINUTES      HOURS       DAYS        YEARS
                    -----------------------------------------------------------
   TIME STEP LENGTH  86400.      1440.0      24.000      1.0000     2.73785E-03
 STRESS PERIOD TIME 6.48000E+06 1.08000E+05  1800.0      75.000     0.20534    
         TOTAL TIME 6.56640E+06 1.09440E+05  1824.0      76.000     0.20808    
1
 
 SOLVING FOR HEAD 

 OUTPUT CONTROL FOR STRESS PERIOD    2   TIME STEP   76
    SAVE HEAD FOR ALL LAYERS
    SAVE DRAWDOWN FOR ALL LAYERS
    SAVE BUDGET
    PRINT HEAD FOR ALL LAYERS
    PRINT BUDGET
 UBDSV1 SAVING "         STORAGE" ON UNIT  53 AT TIME STEP 76, STRESS PERIOD   2
 UBDSV2 SAVING "   CONSTANT HEAD" ON UNIT  53 AT TIME STEP 76, STRESS PERIOD   2
 UBDSV1 SAVING "FLOW RIGHT FACE " ON UNIT  53 AT TIME STEP 76, STRESS PERIOD   2
 UBDSV1 SAVING "FLOW FRONT FACE " ON UNIT  53 AT TIME STEP 76, STRESS PERIOD   2
1
              HEAD IN LAYER   1 AT END OF TIME STEP  76 IN STRESS PERIOD    2
  ---------------------------------------------------------------------------

            1           2           3           4           5           6           7           8           9          10
 ........................................................................................................................
   1    9.999       9.925       9.802       9.563       9.118       8.345       7.112       5.310       2.910      2.9664E-02
   2    9.999       9.925       9.802       9.563       9.118       8.345       7.112       5.310       2.910      2.9664E-02
   3    9.999       9.925       9.802       9.563       9.118       8.345       7.112       5.310       2.910      2.9664E-02
   4    9.999       9.925       9.802       9.563       9.118       8.345       7.112       5.310       2.910      2.9664E-02
   5    9.999       9.925       9.802       9.563       9.118       8.345       7.112       5.310       2.910      2.9664E-02
   6    9.999       9.925       9.802       9.563       9.118       8.345       7.112       5.310       2.910      2.9664E-02
   7    9.999       9.925       9.802       9.563       9.118       8.345       7.112       5.310       2.910      2.9664E-02
   8    9.999       9.925       9.802       9.563       9.118       8.345       7.112       5.310       2.910      2.9664E-02
   9    9.999       9.925       9.802       9.563       9.118       8.345       7.112       5.310       2.910      2.9664E-02
  10    9.999       9.925       9.802       9.563       9.118       8.345       7.112       5.310       2.910      2.9664E-02

 HEAD WILL BE SAVED ON UNIT   51 AT END OF TIME STEP   76, STRESS PERIOD    2

 DRAWDOWN WILL BE SAVED ON UNIT   52 AT END OF TIME STEP   76, STRESS PERIOD    2
1
  VOLUMETRIC BUDGET FOR ENTIRE MODEL AT END OF TIME STEP   76, STRESS PERIOD   2
  ------------------------------------------------------------------------------

     CUMULATIVE VOLUMES      L**3       RATES FOR THIS TIME STEP      L**3/T
     ------------------                 ------------------------

           IN:                                      IN:
           ---                                      ---
             STORAGE =      278859.7500               STORAGE =        1439.1815
       CONSTANT HEAD =           0.0000         CONSTANT HEAD =           0.0000
               WELLS =           0.0000                 WELLS =           0.0000
     HEAD DEP BOUNDS =         763.9008       HEAD DEP BOUNDS =          43.9974

            TOTAL IN =      279623.6562              TOTAL IN =        1483.1790

          OUT:                                     OUT:
          ----                                     ----
             STORAGE =           0.0000               STORAGE =           0.0000
       CONSTANT HEAD =           0.0000         CONSTANT HEAD =           0.0000
               WELLS =           0.0000                 WELLS =           0.0000
     HEAD DEP BOUNDS =      279623.6875       HEAD DEP BOUNDS =        1483.1849

           TOTAL OUT =      279623.6875             TOTAL OUT =        1483.1849

            IN - OUT =      -3.1250E-02              IN - OUT =      -5.9814E-03

 PERCENT DISCREPANCY =          -0.00     PERCENT DISCREPANCY =          -0.00






         TIME SUMMARY AT END OF TIME STEP   76 IN STRESS PERIOD    2
                    SECONDS     MINUTES      HOURS       DAYS        YEARS
                    -----------------------------------------------------------
   TIME STEP LENGTH  86400.      1440.0      24.000      1.0000     2.73785E-03
 STRESS PERIOD TIME 6.56640E+06 1.09440E+05  1824.0      76.000     0.20808    
         TOTAL TIME 6.65280E+06 1.10880E+05  1848.0      77.000     0.21081    
1
 
 SOLVING FOR HEAD 

 OUTPUT CONTROL FOR STRESS PERIOD    2   TIME STEP   77
    SAVE HEAD FOR ALL LAYERS
    SAVE DRAWDOWN FOR ALL LAYERS
    SAVE BUDGET
    PRINT HEAD FOR ALL LAYERS
    PRINT BUDGET
 UBDSV1 SAVING "         STORAGE" ON UNIT  53 AT TIME STEP 77, STRESS PERIOD   2
 UBDSV2 SAVING "   CONSTANT HEAD" ON UNIT  53 AT TIME STEP 77, STRESS PERIOD   2
 UBDSV1 SAVING "FLOW RIGHT FACE " ON UNIT  53 AT TIME STEP 77, STRESS PERIOD   2
 UBDSV1 SAVING "FLOW FRONT FACE " ON UNIT  53 AT TIME STEP 77, STRESS PERIOD   2
1
              HEAD IN LAYER   1 AT END OF TIME STEP  77 IN STRESS PERIOD    2
  ---------------------------------------------------------------------------

            1           2           3           4           5           6           7           8           9          10
 ........................................................................................................................
   1    9.999       9.922       9.795       9.551       9.099       8.320       7.082       5.282       2.892      2.9475E-02
   2    9.999       9.922       9.795       9.551       9.099       8.320       7.082       5.282       2.892      2.9475E-02
   3    9.999       9.922       9.795       9.551       9.099       8.320       7.082       5.282       2.892      2.9475E-02
   4    9.999       9.922       9.795       9.551       9.099       8.320       7.082       5.282       2.892      2.9475E-02
   5    9.999       9.922       9.795       9.551       9.099       8.320       7.082       5.282       2.892      2.9475E-02
   6    9.999       9.922       9.795       9.551       9.099       8.320       7.082       5.282       2.892      2.9475E-02
   7    9.999       9.922       9.795       9.551       9.099       8.320       7.082       5.282       2.892      2.9475E-02
   8    9.999       9.922       9.795       9.551       9.099       8.320       7.082       5.282       2.892      2.9475E-02
   9    9.999       9.922       9.795       9.551       9.099       8.320       7.082       5.282       2.892      2.9475E-02
  10    9.999       9.922       9.795       9.551       9.099       8.320       7.082       5.282       2.892      2.9475E-02

 HEAD WILL BE SAVED ON UNIT   51 AT END OF TIME STEP   77, STRESS PERIOD    2

 DRAWDOWN WILL BE SAVED ON UNIT   52 AT END OF TIME STEP   77, STRESS PERIOD    2
1
  VOLUMETRIC BUDGET FOR ENTIRE MODEL AT END OF TIME STEP   77, STRESS PERIOD   2
  ------------------------------------------------------------------------------

     CUMULATIVE VOLUMES      L**3       RATES FOR THIS TIME STEP      L**3/T
     ------------------                 ------------------------

           IN:                                      IN:
           ---                                      ---
             STORAGE =      280287.6875               STORAGE =        1427.9430
       CONSTANT HEAD =           0.0000         CONSTANT HEAD =           0.0000
               WELLS =           0.0000                 WELLS =           0.0000
     HEAD DEP BOUNDS =         809.7054       HEAD DEP BOUNDS =          45.8046

            TOTAL IN =      281097.4062              TOTAL IN =        1473.7476

          OUT:                                     OUT:
          ----                                     ----
             STORAGE =           0.0000               STORAGE =           0.0000
       CONSTANT HEAD =           0.0000         CONSTANT HEAD =           0.0000
               WELLS =           0.0000                 WELLS =           0.0000
     HEAD DEP BOUNDS =      281097.4375       HEAD DEP BOUNDS =        1473.7535

           TOTAL OUT =      281097.4375             TOTAL OUT =        1473.7535

            IN - OUT =      -3.1250E-02              IN - OUT =      -5.9814E-03

 PERCENT DISCREPANCY =          -0.00     PERCENT DISCREPANCY =          -0.00






         TIME SUMMARY AT END OF TIME STEP   77 IN STRESS PERIOD    2
                    SECONDS     MINUTES      HOURS       DAYS        YEARS
                    -----------------------------------------------------------
   TIME STEP LENGTH  86400.      1440.0      24.000      1.0000     2.73785E-03
 STRESS PERIOD TIME 6.65280E+06 1.10880E+05  1848.0      77.000     0.21081    
         TOTAL TIME 6.73920E+06 1.12320E+05  1872.0      78.000     0.21355    
1
 
 SOLVING FOR HEAD 

 OUTPUT CONTROL FOR STRESS PERIOD    2   TIME STEP   78
    SAVE HEAD FOR ALL LAYERS
    SAVE DRAWDOWN FOR ALL LAYERS
    SAVE BUDGET
    PRINT HEAD FOR ALL LAYERS
    PRINT BUDGET
 UBDSV1 SAVING "         STORAGE" ON UNIT  53 AT TIME STEP 78, STRESS PERIOD   2
 UBDSV2 SAVING "   CONSTANT HEAD" ON UNIT  53 AT TIME STEP 78, STRESS PERIOD   2
 UBDSV1 SAVING "FLOW RIGHT FACE " ON UNIT  53 AT TIME STEP 78, STRESS PERIOD   2
 UBDSV1 SAVING "FLOW FRONT FACE " ON UNIT  53 AT TIME STEP 78, STRESS PERIOD   2
1
              HEAD IN LAYER   1 AT END OF TIME STEP  78 IN STRESS PERIOD    2
  ---------------------------------------------------------------------------

            1           2           3           4           5           6           7           8           9          10
 ........................................................................................................................
   1    9.999       9.919       9.788       9.539       9.080       8.294       7.053       5.254       2.874      2.9290E-02
   2    9.999       9.919       9.788       9.539       9.080       8.294       7.053       5.254       2.874      2.9290E-02
   3    9.999       9.919       9.788       9.539       9.080       8.294       7.053       5.254       2.874      2.9290E-02
   4    9.999       9.919       9.788       9.539       9.080       8.294       7.053       5.254       2.874      2.9290E-02
   5    9.999       9.919       9.788       9.539       9.080       8.294       7.053       5.254       2.874      2.9290E-02
   6    9.999       9.919       9.788       9.539       9.080       8.294       7.053       5.254       2.874      2.9290E-02
   7    9.999       9.919       9.788       9.539       9.080       8.294       7.053       5.254       2.874      2.9290E-02
   8    9.999       9.919       9.788       9.539       9.080       8.294       7.053       5.254       2.874      2.9290E-02
   9    9.999       9.919       9.788       9.539       9.080       8.294       7.053       5.254       2.874      2.9290E-02
  10    9.999       9.919       9.788       9.539       9.080       8.294       7.053       5.254       2.874      2.9290E-02

 HEAD WILL BE SAVED ON UNIT   51 AT END OF TIME STEP   78, STRESS PERIOD    2

 DRAWDOWN WILL BE SAVED ON UNIT   52 AT END OF TIME STEP   78, STRESS PERIOD    2
1
  VOLUMETRIC BUDGET FOR ENTIRE MODEL AT END OF TIME STEP   78, STRESS PERIOD   2
  ------------------------------------------------------------------------------

     CUMULATIVE VOLUMES      L**3       RATES FOR THIS TIME STEP      L**3/T
     ------------------                 ------------------------

           IN:                                      IN:
           ---                                      ---
             STORAGE =      281704.5625               STORAGE =        1416.8894
       CONSTANT HEAD =           0.0000         CONSTANT HEAD =           0.0000
               WELLS =           0.0000                 WELLS =           0.0000
     HEAD DEP BOUNDS =         857.3434       HEAD DEP BOUNDS =          47.6379

            TOTAL IN =      282561.9062              TOTAL IN =        1464.5273

          OUT:                                     OUT:
          ----                                     ----
             STORAGE =           0.0000               STORAGE =           0.0000
       CONSTANT HEAD =           0.0000         CONSTANT HEAD =           0.0000
               WELLS =           0.0000                 WELLS =           0.0000
     HEAD DEP BOUNDS =      282561.9375       HEAD DEP BOUNDS =        1464.4935

           TOTAL OUT =      282561.9375             TOTAL OUT =        1464.4935

            IN - OUT =      -3.1250E-02              IN - OUT =       3.3813E-02

 PERCENT DISCREPANCY =          -0.00     PERCENT DISCREPANCY =           0.00






         TIME SUMMARY AT END OF TIME STEP   78 IN STRESS PERIOD    2
                    SECONDS     MINUTES      HOURS       DAYS        YEARS
                    -----------------------------------------------------------
   TIME STEP LENGTH  86400.      1440.0      24.000      1.0000     2.73785E-03
 STRESS PERIOD TIME 6.73920E+06 1.12320E+05  1872.0      78.000     0.21355    
         TOTAL TIME 6.82560E+06 1.13760E+05  1896.0      79.000     0.21629    
1
 
 SOLVING FOR HEAD 

 OUTPUT CONTROL FOR STRESS PERIOD    2   TIME STEP   79
    SAVE HEAD FOR ALL LAYERS
    SAVE DRAWDOWN FOR ALL LAYERS
    SAVE BUDGET
    PRINT HEAD FOR ALL LAYERS
    PRINT BUDGET
 UBDSV1 SAVING "         STORAGE" ON UNIT  53 AT TIME STEP 79, STRESS PERIOD   2
 UBDSV2 SAVING "   CONSTANT HEAD" ON UNIT  53 AT TIME STEP 79, STRESS PERIOD   2
 UBDSV1 SAVING "FLOW RIGHT FACE " ON UNIT  53 AT TIME STEP 79, STRESS PERIOD   2
 UBDSV1 SAVING "FLOW FRONT FACE " ON UNIT  53 AT TIME STEP 79, STRESS PERIOD   2
1
              HEAD IN LAYER   1 AT END OF TIME STEP  79 IN STRESS PERIOD    2
  ---------------------------------------------------------------------------

            1           2           3           4           5           6           7           8           9          10
 ........................................................................................................................
   1    9.999       9.916       9.781       9.526       9.061       8.269       7.024       5.227       2.857      2.9108E-02
   2    9.999       9.916       9.781       9.526       9.061       8.269       7.024       5.227       2.857      2.9108E-02
   3    9.999       9.916       9.781       9.526       9.061       8.269       7.024       5.227       2.857      2.9108E-02
   4    9.999       9.916       9.781       9.526       9.061       8.269       7.024       5.227       2.857      2.9108E-02
   5    9.999       9.916       9.781       9.526       9.061       8.269       7.024       5.227       2.857      2.9108E-02
   6    9.999       9.916       9.781       9.526       9.061       8.269       7.024       5.227       2.857      2.9108E-02
   7    9.999       9.916       9.781       9.526       9.061       8.269       7.024       5.227       2.857      2.9108E-02
   8    9.999       9.916       9.781       9.526       9.061       8.269       7.024       5.227       2.857      2.9108E-02
   9    9.999       9.916       9.781       9.526       9.061       8.269       7.024       5.227       2.857      2.9108E-02
  10    9.999       9.916       9.781       9.526       9.061       8.269       7.024       5.227       2.857      2.9108E-02

 HEAD WILL BE SAVED ON UNIT   51 AT END OF TIME STEP   79, STRESS PERIOD    2

 DRAWDOWN WILL BE SAVED ON UNIT   52 AT END OF TIME STEP   79, STRESS PERIOD    2
1
  VOLUMETRIC BUDGET FOR ENTIRE MODEL AT END OF TIME STEP   79, STRESS PERIOD   2
  ------------------------------------------------------------------------------

     CUMULATIVE VOLUMES      L**3       RATES FOR THIS TIME STEP      L**3/T
     ------------------                 ------------------------

           IN:                                      IN:
           ---                                      ---
             STORAGE =      283110.5000               STORAGE =        1405.9238
       CONSTANT HEAD =           0.0000         CONSTANT HEAD =           0.0000
               WELLS =           0.0000                 WELLS =           0.0000
     HEAD DEP BOUNDS =         906.8398       HEAD DEP BOUNDS =          49.4964

            TOTAL IN =      284017.3438              TOTAL IN =        1455.4203

          OUT:                                     OUT:
          ----                                     ----
             STORAGE =           0.0000               STORAGE =           0.0000
       CONSTANT HEAD =           0.0000         CONSTANT HEAD =           0.0000
               WELLS =           0.0000                 WELLS =           0.0000
     HEAD DEP BOUNDS =      284017.3438       HEAD DEP BOUNDS =        1455.4003

           TOTAL OUT =      284017.3438             TOTAL OUT =        1455.4003

            IN - OUT =           0.0000              IN - OUT =       2.0020E-02

 PERCENT DISCREPANCY =           0.00     PERCENT DISCREPANCY =           0.00






         TIME SUMMARY AT END OF TIME STEP   79 IN STRESS PERIOD    2
                    SECONDS     MINUTES      HOURS       DAYS        YEARS
                    -----------------------------------------------------------
   TIME STEP LENGTH  86400.      1440.0      24.000      1.0000     2.73785E-03
 STRESS PERIOD TIME 6.82560E+06 1.13760E+05  1896.0      79.000     0.21629    
         TOTAL TIME 6.91200E+06 1.15200E+05  1920.0      80.000     0.21903    
1
 
 SOLVING FOR HEAD 

 OUTPUT CONTROL FOR STRESS PERIOD    2   TIME STEP   80
    SAVE HEAD FOR ALL LAYERS
    SAVE DRAWDOWN FOR ALL LAYERS
    SAVE BUDGET
    PRINT HEAD FOR ALL LAYERS
    PRINT BUDGET
 UBDSV1 SAVING "         STORAGE" ON UNIT  53 AT TIME STEP 80, STRESS PERIOD   2
 UBDSV2 SAVING "   CONSTANT HEAD" ON UNIT  53 AT TIME STEP 80, STRESS PERIOD   2
 UBDSV1 SAVING "FLOW RIGHT FACE " ON UNIT  53 AT TIME STEP 80, STRESS PERIOD   2
 UBDSV1 SAVING "FLOW FRONT FACE " ON UNIT  53 AT TIME STEP 80, STRESS PERIOD   2
1
              HEAD IN LAYER   1 AT END OF TIME STEP  80 IN STRESS PERIOD    2
  ---------------------------------------------------------------------------

            1           2           3           4           5           6           7           8           9          10
 ........................................................................................................................
   1    9.999       9.913       9.774       9.514       9.042       8.244       6.995       5.200       2.840      2.8930E-02
   2    9.999       9.913       9.774       9.514       9.042       8.244       6.995       5.200       2.840      2.8930E-02
   3    9.999       9.913       9.774       9.514       9.042       8.244       6.995       5.200       2.840      2.8930E-02
   4    9.999       9.913       9.774       9.514       9.042       8.244       6.995       5.200       2.840      2.8930E-02
   5    9.999       9.913       9.774       9.514       9.042       8.244       6.995       5.200       2.840      2.8930E-02
   6    9.999       9.913       9.774       9.514       9.042       8.244       6.995       5.200       2.840      2.8930E-02
   7    9.999       9.913       9.774       9.514       9.042       8.244       6.995       5.200       2.840      2.8930E-02
   8    9.999       9.913       9.774       9.514       9.042       8.244       6.995       5.200       2.840      2.8930E-02
   9    9.999       9.913       9.774       9.514       9.042       8.244       6.995       5.200       2.840      2.8930E-02
  10    9.999       9.913       9.774       9.514       9.042       8.244       6.995       5.200       2.840      2.8930E-02

 HEAD WILL BE SAVED ON UNIT   51 AT END OF TIME STEP   80, STRESS PERIOD    2

 DRAWDOWN WILL BE SAVED ON UNIT   52 AT END OF TIME STEP   80, STRESS PERIOD    2
1
  VOLUMETRIC BUDGET FOR ENTIRE MODEL AT END OF TIME STEP   80, STRESS PERIOD   2
  ------------------------------------------------------------------------------

     CUMULATIVE VOLUMES      L**3       RATES FOR THIS TIME STEP      L**3/T
     ------------------                 ------------------------

           IN:                                      IN:
           ---                                      ---
             STORAGE =      284505.6250               STORAGE =        1395.1398
       CONSTANT HEAD =           0.0000         CONSTANT HEAD =           0.0000
               WELLS =           0.0000                 WELLS =           0.0000
     HEAD DEP BOUNDS =         958.2194       HEAD DEP BOUNDS =          51.3796

            TOTAL IN =      285463.8438              TOTAL IN =        1446.5193

          OUT:                                     OUT:
          ----                                     ----
             STORAGE =           0.0000               STORAGE =           0.0000
       CONSTANT HEAD =           0.0000         CONSTANT HEAD =           0.0000
               WELLS =           0.0000                 WELLS =           0.0000
     HEAD DEP BOUNDS =      285463.8125       HEAD DEP BOUNDS =        1446.4774

           TOTAL OUT =      285463.8125             TOTAL OUT =        1446.4774

            IN - OUT =       3.1250E-02              IN - OUT =       4.1870E-02

 PERCENT DISCREPANCY =           0.00     PERCENT DISCREPANCY =           0.00






         TIME SUMMARY AT END OF TIME STEP   80 IN STRESS PERIOD    2
                    SECONDS     MINUTES      HOURS       DAYS        YEARS
                    -----------------------------------------------------------
   TIME STEP LENGTH  86400.      1440.0      24.000      1.0000     2.73785E-03
 STRESS PERIOD TIME 6.91200E+06 1.15200E+05  1920.0      80.000     0.21903    
         TOTAL TIME 6.99840E+06 1.16640E+05  1944.0      81.000     0.22177    
1
 
 SOLVING FOR HEAD 

 OUTPUT CONTROL FOR STRESS PERIOD    2   TIME STEP   81
    SAVE HEAD FOR ALL LAYERS
    SAVE DRAWDOWN FOR ALL LAYERS
    SAVE BUDGET
    PRINT HEAD FOR ALL LAYERS
    PRINT BUDGET
 UBDSV1 SAVING "         STORAGE" ON UNIT  53 AT TIME STEP 81, STRESS PERIOD   2
 UBDSV2 SAVING "   CONSTANT HEAD" ON UNIT  53 AT TIME STEP 81, STRESS PERIOD   2
 UBDSV1 SAVING "FLOW RIGHT FACE " ON UNIT  53 AT TIME STEP 81, STRESS PERIOD   2
 UBDSV1 SAVING "FLOW FRONT FACE " ON UNIT  53 AT TIME STEP 81, STRESS PERIOD   2
1
              HEAD IN LAYER   1 AT END OF TIME STEP  81 IN STRESS PERIOD    2
  ---------------------------------------------------------------------------

            1           2           3           4           5           6           7           8           9          10
 ........................................................................................................................
   1    9.999       9.910       9.766       9.501       9.023       8.219       6.967       5.174       2.823      2.8754E-02
   2    9.999       9.910       9.766       9.501       9.023       8.219       6.967       5.174       2.823      2.8754E-02
   3    9.999       9.910       9.766       9.501       9.023       8.219       6.967       5.174       2.823      2.8754E-02
   4    9.999       9.910       9.766       9.501       9.023       8.219       6.967       5.174       2.823      2.8754E-02
   5    9.999       9.910       9.766       9.501       9.023       8.219       6.967       5.174       2.823      2.8754E-02
   6    9.999       9.910       9.766       9.501       9.023       8.219       6.967       5.174       2.823      2.8754E-02
   7    9.999       9.910       9.766       9.501       9.023       8.219       6.967       5.174       2.823      2.8754E-02
   8    9.999       9.910       9.766       9.501       9.023       8.219       6.967       5.174       2.823      2.8754E-02
   9    9.999       9.910       9.766       9.501       9.023       8.219       6.967       5.174       2.823      2.8754E-02
  10    9.999       9.910       9.766       9.501       9.023       8.219       6.967       5.174       2.823      2.8754E-02

 HEAD WILL BE SAVED ON UNIT   51 AT END OF TIME STEP   81, STRESS PERIOD    2

 DRAWDOWN WILL BE SAVED ON UNIT   52 AT END OF TIME STEP   81, STRESS PERIOD    2
1
  VOLUMETRIC BUDGET FOR ENTIRE MODEL AT END OF TIME STEP   81, STRESS PERIOD   2
  ------------------------------------------------------------------------------

     CUMULATIVE VOLUMES      L**3       RATES FOR THIS TIME STEP      L**3/T
     ------------------                 ------------------------

           IN:                                      IN:
           ---                                      ---
             STORAGE =      285890.0938               STORAGE =        1384.4590
       CONSTANT HEAD =           0.0000         CONSTANT HEAD =           0.0000
               WELLS =           0.0000                 WELLS =           0.0000
     HEAD DEP BOUNDS =        1011.5062       HEAD DEP BOUNDS =          53.2868

            TOTAL IN =      286901.5938              TOTAL IN =        1437.7457

          OUT:                                     OUT:
          ----                                     ----
             STORAGE =           0.0000               STORAGE =           0.0000
       CONSTANT HEAD =           0.0000         CONSTANT HEAD =           0.0000
               WELLS =           0.0000                 WELLS =           0.0000
     HEAD DEP BOUNDS =      286901.5312       HEAD DEP BOUNDS =        1437.7131

           TOTAL OUT =      286901.5312             TOTAL OUT =        1437.7131

            IN - OUT =       6.2500E-02              IN - OUT =       3.2593E-02

 PERCENT DISCREPANCY =           0.00     PERCENT DISCREPANCY =           0.00






         TIME SUMMARY AT END OF TIME STEP   81 IN STRESS PERIOD    2
                    SECONDS     MINUTES      HOURS       DAYS        YEARS
                    -----------------------------------------------------------
   TIME STEP LENGTH  86400.      1440.0      24.000      1.0000     2.73785E-03
 STRESS PERIOD TIME 6.99840E+06 1.16640E+05  1944.0      81.000     0.22177    
         TOTAL TIME 7.08480E+06 1.18080E+05  1968.0      82.000     0.22450    
1
 
 SOLVING FOR HEAD 

 OUTPUT CONTROL FOR STRESS PERIOD    2   TIME STEP   82
    SAVE HEAD FOR ALL LAYERS
    SAVE DRAWDOWN FOR ALL LAYERS
    SAVE BUDGET
    PRINT HEAD FOR ALL LAYERS
    PRINT BUDGET
 UBDSV1 SAVING "         STORAGE" ON UNIT  53 AT TIME STEP 82, STRESS PERIOD   2
 UBDSV2 SAVING "   CONSTANT HEAD" ON UNIT  53 AT TIME STEP 82, STRESS PERIOD   2
 UBDSV1 SAVING "FLOW RIGHT FACE " ON UNIT  53 AT TIME STEP 82, STRESS PERIOD   2
 UBDSV1 SAVING "FLOW FRONT FACE " ON UNIT  53 AT TIME STEP 82, STRESS PERIOD   2
1
              HEAD IN LAYER   1 AT END OF TIME STEP  82 IN STRESS PERIOD    2
  ---------------------------------------------------------------------------

            1           2           3           4           5           6           7           8           9          10
 ........................................................................................................................
   1    9.999       9.906       9.759       9.489       9.005       8.194       6.939       5.148       2.807      2.8582E-02
   2    9.999       9.906       9.759       9.489       9.005       8.194       6.939       5.148       2.807      2.8582E-02
   3    9.999       9.906       9.759       9.489       9.005       8.194       6.939       5.148       2.807      2.8582E-02
   4    9.999       9.906       9.759       9.489       9.005       8.194       6.939       5.148       2.807      2.8582E-02
   5    9.999       9.906       9.759       9.489       9.005       8.194       6.939       5.148       2.807      2.8582E-02
   6    9.999       9.906       9.759       9.489       9.005       8.194       6.939       5.148       2.807      2.8582E-02
   7    9.999       9.906       9.759       9.489       9.005       8.194       6.939       5.148       2.807      2.8582E-02
   8    9.999       9.906       9.759       9.489       9.005       8.194       6.939       5.148       2.807      2.8582E-02
   9    9.999       9.906       9.759       9.489       9.005       8.194       6.939       5.148       2.807      2.8582E-02
  10    9.999       9.906       9.759       9.489       9.005       8.194       6.939       5.148       2.807      2.8582E-02

 HEAD WILL BE SAVED ON UNIT   51 AT END OF TIME STEP   82, STRESS PERIOD    2

 DRAWDOWN WILL BE SAVED ON UNIT   52 AT END OF TIME STEP   82, STRESS PERIOD    2
1
  VOLUMETRIC BUDGET FOR ENTIRE MODEL AT END OF TIME STEP   82, STRESS PERIOD   2
  ------------------------------------------------------------------------------

     CUMULATIVE VOLUMES      L**3       RATES FOR THIS TIME STEP      L**3/T
     ------------------                 ------------------------

           IN:                                      IN:
           ---                                      ---
             STORAGE =      287264.0000               STORAGE =        1373.9098
       CONSTANT HEAD =           0.0000         CONSTANT HEAD =           0.0000
               WELLS =           0.0000                 WELLS =           0.0000
     HEAD DEP BOUNDS =        1066.7239       HEAD DEP BOUNDS =          55.2176

            TOTAL IN =      288330.7188              TOTAL IN =        1429.1274

          OUT:                                     OUT:
          ----                                     ----
             STORAGE =           0.0000               STORAGE =           0.0000
       CONSTANT HEAD =           0.0000         CONSTANT HEAD =           0.0000
               WELLS =           0.0000                 WELLS =           0.0000
     HEAD DEP BOUNDS =      288330.6250       HEAD DEP BOUNDS =        1429.1030

           TOTAL OUT =      288330.6250             TOTAL OUT =        1429.1030

            IN - OUT =       9.3750E-02              IN - OUT =       2.4414E-02

 PERCENT DISCREPANCY =           0.00     PERCENT DISCREPANCY =           0.00






         TIME SUMMARY AT END OF TIME STEP   82 IN STRESS PERIOD    2
                    SECONDS     MINUTES      HOURS       DAYS        YEARS
                    -----------------------------------------------------------
   TIME STEP LENGTH  86400.      1440.0      24.000      1.0000     2.73785E-03
 STRESS PERIOD TIME 7.08480E+06 1.18080E+05  1968.0      82.000     0.22450    
         TOTAL TIME 7.17120E+06 1.19520E+05  1992.0      83.000     0.22724    
1
 
 SOLVING FOR HEAD 

 OUTPUT CONTROL FOR STRESS PERIOD    2   TIME STEP   83
    SAVE HEAD FOR ALL LAYERS
    SAVE DRAWDOWN FOR ALL LAYERS
    SAVE BUDGET
    PRINT HEAD FOR ALL LAYERS
    PRINT BUDGET
 UBDSV1 SAVING "         STORAGE" ON UNIT  53 AT TIME STEP 83, STRESS PERIOD   2
 UBDSV2 SAVING "   CONSTANT HEAD" ON UNIT  53 AT TIME STEP 83, STRESS PERIOD   2
 UBDSV1 SAVING "FLOW RIGHT FACE " ON UNIT  53 AT TIME STEP 83, STRESS PERIOD   2
 UBDSV1 SAVING "FLOW FRONT FACE " ON UNIT  53 AT TIME STEP 83, STRESS PERIOD   2
1
              HEAD IN LAYER   1 AT END OF TIME STEP  83 IN STRESS PERIOD    2
  ---------------------------------------------------------------------------

            1           2           3           4           5           6           7           8           9          10
 ........................................................................................................................
   1    9.999       9.903       9.752       9.476       8.986       8.169       6.911       5.122       2.791      2.8413E-02
   2    9.999       9.903       9.752       9.476       8.986       8.169       6.911       5.122       2.791      2.8413E-02
   3    9.999       9.903       9.752       9.476       8.986       8.169       6.911       5.122       2.791      2.8413E-02
   4    9.999       9.903       9.752       9.476       8.986       8.169       6.911       5.122       2.791      2.8413E-02
   5    9.999       9.903       9.752       9.476       8.986       8.169       6.911       5.122       2.791      2.8413E-02
   6    9.999       9.903       9.752       9.476       8.986       8.169       6.911       5.122       2.791      2.8413E-02
   7    9.999       9.903       9.752       9.476       8.986       8.169       6.911       5.122       2.791      2.8413E-02
   8    9.999       9.903       9.752       9.476       8.986       8.169       6.911       5.122       2.791      2.8413E-02
   9    9.999       9.903       9.752       9.476       8.986       8.169       6.911       5.122       2.791      2.8413E-02
  10    9.999       9.903       9.752       9.476       8.986       8.169       6.911       5.122       2.791      2.8413E-02

 HEAD WILL BE SAVED ON UNIT   51 AT END OF TIME STEP   83, STRESS PERIOD    2

 DRAWDOWN WILL BE SAVED ON UNIT   52 AT END OF TIME STEP   83, STRESS PERIOD    2
1
  VOLUMETRIC BUDGET FOR ENTIRE MODEL AT END OF TIME STEP   83, STRESS PERIOD   2
  ------------------------------------------------------------------------------

     CUMULATIVE VOLUMES      L**3       RATES FOR THIS TIME STEP      L**3/T
     ------------------                 ------------------------

           IN:                                      IN:
           ---                                      ---
             STORAGE =      288627.5000               STORAGE =        1363.4960
       CONSTANT HEAD =           0.0000         CONSTANT HEAD =           0.0000
               WELLS =           0.0000                 WELLS =           0.0000
     HEAD DEP BOUNDS =        1123.8954       HEAD DEP BOUNDS =          57.1715

            TOTAL IN =      289751.4062              TOTAL IN =        1420.6675

          OUT:                                     OUT:
          ----                                     ----
             STORAGE =           0.0000               STORAGE =           0.0000
       CONSTANT HEAD =           0.0000         CONSTANT HEAD =           0.0000
               WELLS =           0.0000                 WELLS =           0.0000
     HEAD DEP BOUNDS =      289751.2812       HEAD DEP BOUNDS =        1420.6515

           TOTAL OUT =      289751.2812             TOTAL OUT =        1420.6515

            IN - OUT =           0.1250              IN - OUT =       1.5991E-02

 PERCENT DISCREPANCY =           0.00     PERCENT DISCREPANCY =           0.00






         TIME SUMMARY AT END OF TIME STEP   83 IN STRESS PERIOD    2
                    SECONDS     MINUTES      HOURS       DAYS        YEARS
                    -----------------------------------------------------------
   TIME STEP LENGTH  86400.      1440.0      24.000      1.0000     2.73785E-03
 STRESS PERIOD TIME 7.17120E+06 1.19520E+05  1992.0      83.000     0.22724    
         TOTAL TIME 7.25760E+06 1.20960E+05  2016.0      84.000     0.22998    
1
 
 SOLVING FOR HEAD 

 OUTPUT CONTROL FOR STRESS PERIOD    2   TIME STEP   84
    SAVE HEAD FOR ALL LAYERS
    SAVE DRAWDOWN FOR ALL LAYERS
    SAVE BUDGET
    PRINT HEAD FOR ALL LAYERS
    PRINT BUDGET
 UBDSV1 SAVING "         STORAGE" ON UNIT  53 AT TIME STEP 84, STRESS PERIOD   2
 UBDSV2 SAVING "   CONSTANT HEAD" ON UNIT  53 AT TIME STEP 84, STRESS PERIOD   2
 UBDSV1 SAVING "FLOW RIGHT FACE " ON UNIT  53 AT TIME STEP 84, STRESS PERIOD   2
 UBDSV1 SAVING "FLOW FRONT FACE " ON UNIT  53 AT TIME STEP 84, STRESS PERIOD   2
1
              HEAD IN LAYER   1 AT END OF TIME STEP  84 IN STRESS PERIOD    2
  ---------------------------------------------------------------------------

            1           2           3           4           5           6           7           8           9          10
 ........................................................................................................................
   1    9.999       9.900       9.744       9.463       8.967       8.145       6.883       5.097       2.775      2.8247E-02
   2    9.999       9.900       9.744       9.463       8.967       8.145       6.883       5.097       2.775      2.8247E-02
   3    9.999       9.900       9.744       9.463       8.967       8.145       6.883       5.097       2.775      2.8247E-02
   4    9.999       9.900       9.744       9.463       8.967       8.145       6.883       5.097       2.775      2.8247E-02
   5    9.999       9.900       9.744       9.463       8.967       8.145       6.883       5.097       2.775      2.8247E-02
   6    9.999       9.900       9.744       9.463       8.967       8.145       6.883       5.097       2.775      2.8247E-02
   7    9.999       9.900       9.744       9.463       8.967       8.145       6.883       5.097       2.775      2.8247E-02
   8    9.999       9.900       9.744       9.463       8.967       8.145       6.883       5.097       2.775      2.8247E-02
   9    9.999       9.900       9.744       9.463       8.967       8.145       6.883       5.097       2.775      2.8247E-02
  10    9.999       9.900       9.744       9.463       8.967       8.145       6.883       5.097       2.775      2.8247E-02

 HEAD WILL BE SAVED ON UNIT   51 AT END OF TIME STEP   84, STRESS PERIOD    2

 DRAWDOWN WILL BE SAVED ON UNIT   52 AT END OF TIME STEP   84, STRESS PERIOD    2
1
  VOLUMETRIC BUDGET FOR ENTIRE MODEL AT END OF TIME STEP   84, STRESS PERIOD   2
  ------------------------------------------------------------------------------

     CUMULATIVE VOLUMES      L**3       RATES FOR THIS TIME STEP      L**3/T
     ------------------                 ------------------------

           IN:                                      IN:
           ---                                      ---
             STORAGE =      289980.6875               STORAGE =        1353.1959
       CONSTANT HEAD =           0.0000         CONSTANT HEAD =           0.0000
               WELLS =           0.0000                 WELLS =           0.0000
     HEAD DEP BOUNDS =        1183.0425       HEAD DEP BOUNDS =          59.1471

            TOTAL IN =      291163.7188              TOTAL IN =        1412.3430

          OUT:                                     OUT:
          ----                                     ----
             STORAGE =           0.0000               STORAGE =           0.0000
       CONSTANT HEAD =           0.0000         CONSTANT HEAD =           0.0000
               WELLS =           0.0000                 WELLS =           0.0000
     HEAD DEP BOUNDS =      291163.6250       HEAD DEP BOUNDS =        1412.3469

           TOTAL OUT =      291163.6250             TOTAL OUT =        1412.3469

            IN - OUT =       9.3750E-02              IN - OUT =      -3.9062E-03

 PERCENT DISCREPANCY =           0.00     PERCENT DISCREPANCY =          -0.00






         TIME SUMMARY AT END OF TIME STEP   84 IN STRESS PERIOD    2
                    SECONDS     MINUTES      HOURS       DAYS        YEARS
                    -----------------------------------------------------------
   TIME STEP LENGTH  86400.      1440.0      24.000      1.0000     2.73785E-03
 STRESS PERIOD TIME 7.25760E+06 1.20960E+05  2016.0      84.000     0.22998    
         TOTAL TIME 7.34400E+06 1.22400E+05  2040.0      85.000     0.23272    
1
 
 SOLVING FOR HEAD 

 OUTPUT CONTROL FOR STRESS PERIOD    2   TIME STEP   85
    SAVE HEAD FOR ALL LAYERS
    SAVE DRAWDOWN FOR ALL LAYERS
    SAVE BUDGET
    PRINT HEAD FOR ALL LAYERS
    PRINT BUDGET
 UBDSV1 SAVING "         STORAGE" ON UNIT  53 AT TIME STEP 85, STRESS PERIOD   2
 UBDSV2 SAVING "   CONSTANT HEAD" ON UNIT  53 AT TIME STEP 85, STRESS PERIOD   2
 UBDSV1 SAVING "FLOW RIGHT FACE " ON UNIT  53 AT TIME STEP 85, STRESS PERIOD   2
 UBDSV1 SAVING "FLOW FRONT FACE " ON UNIT  53 AT TIME STEP 85, STRESS PERIOD   2
1
              HEAD IN LAYER   1 AT END OF TIME STEP  85 IN STRESS PERIOD    2
  ---------------------------------------------------------------------------

            1           2           3           4           5           6           7           8           9          10
 ........................................................................................................................
   1    9.999       9.896       9.737       9.451       8.948       8.121       6.856       5.072       2.759      2.8084E-02
   2    9.999       9.896       9.737       9.451       8.948       8.121       6.856       5.072       2.759      2.8084E-02
   3    9.999       9.896       9.737       9.451       8.948       8.121       6.856       5.072       2.759      2.8084E-02
   4    9.999       9.896       9.737       9.451       8.948       8.121       6.856       5.072       2.759      2.8084E-02
   5    9.999       9.896       9.737       9.451       8.948       8.121       6.856       5.072       2.759      2.8084E-02
   6    9.999       9.896       9.737       9.451       8.948       8.121       6.856       5.072       2.759      2.8084E-02
   7    9.999       9.896       9.737       9.451       8.948       8.121       6.856       5.072       2.759      2.8084E-02
   8    9.999       9.896       9.737       9.451       8.948       8.121       6.856       5.072       2.759      2.8084E-02
   9    9.999       9.896       9.737       9.451       8.948       8.121       6.856       5.072       2.759      2.8084E-02
  10    9.999       9.896       9.737       9.451       8.948       8.121       6.856       5.072       2.759      2.8084E-02

 HEAD WILL BE SAVED ON UNIT   51 AT END OF TIME STEP   85, STRESS PERIOD    2

 DRAWDOWN WILL BE SAVED ON UNIT   52 AT END OF TIME STEP   85, STRESS PERIOD    2
1
  VOLUMETRIC BUDGET FOR ENTIRE MODEL AT END OF TIME STEP   85, STRESS PERIOD   2
  ------------------------------------------------------------------------------

     CUMULATIVE VOLUMES      L**3       RATES FOR THIS TIME STEP      L**3/T
     ------------------                 ------------------------

           IN:                                      IN:
           ---                                      ---
             STORAGE =      291323.7188               STORAGE =        1343.0199
       CONSTANT HEAD =           0.0000         CONSTANT HEAD =           0.0000
               WELLS =           0.0000                 WELLS =           0.0000
     HEAD DEP BOUNDS =        1244.1868       HEAD DEP BOUNDS =          61.1442

            TOTAL IN =      292567.9062              TOTAL IN =        1404.1642

          OUT:                                     OUT:
          ----                                     ----
             STORAGE =           0.0000               STORAGE =           0.0000
       CONSTANT HEAD =           0.0000         CONSTANT HEAD =           0.0000
               WELLS =           0.0000                 WELLS =           0.0000
     HEAD DEP BOUNDS =      292567.8125       HEAD DEP BOUNDS =        1404.1857

           TOTAL OUT =      292567.8125             TOTAL OUT =        1404.1857

            IN - OUT =       9.3750E-02              IN - OUT =      -2.1484E-02

 PERCENT DISCREPANCY =           0.00     PERCENT DISCREPANCY =          -0.00






         TIME SUMMARY AT END OF TIME STEP   85 IN STRESS PERIOD    2
                    SECONDS     MINUTES      HOURS       DAYS        YEARS
                    -----------------------------------------------------------
   TIME STEP LENGTH  86400.      1440.0      24.000      1.0000     2.73785E-03
 STRESS PERIOD TIME 7.34400E+06 1.22400E+05  2040.0      85.000     0.23272    
         TOTAL TIME 7.43040E+06 1.23840E+05  2064.0      86.000     0.23546    
1
 
 SOLVING FOR HEAD 

 OUTPUT CONTROL FOR STRESS PERIOD    2   TIME STEP   86
    SAVE HEAD FOR ALL LAYERS
    SAVE DRAWDOWN FOR ALL LAYERS
    SAVE BUDGET
    PRINT HEAD FOR ALL LAYERS
    PRINT BUDGET
 UBDSV1 SAVING "         STORAGE" ON UNIT  53 AT TIME STEP 86, STRESS PERIOD   2
 UBDSV2 SAVING "   CONSTANT HEAD" ON UNIT  53 AT TIME STEP 86, STRESS PERIOD   2
 UBDSV1 SAVING "FLOW RIGHT FACE " ON UNIT  53 AT TIME STEP 86, STRESS PERIOD   2
 UBDSV1 SAVING "FLOW FRONT FACE " ON UNIT  53 AT TIME STEP 86, STRESS PERIOD   2
1
              HEAD IN LAYER   1 AT END OF TIME STEP  86 IN STRESS PERIOD    2
  ---------------------------------------------------------------------------

            1           2           3           4           5           6           7           8           9          10
 ........................................................................................................................
   1    9.999       9.893       9.729       9.438       8.930       8.097       6.829       5.048       2.744      2.7923E-02
   2    9.999       9.893       9.729       9.438       8.930       8.097       6.829       5.048       2.744      2.7923E-02
   3    9.999       9.893       9.729       9.438       8.930       8.097       6.829       5.048       2.744      2.7923E-02
   4    9.999       9.893       9.729       9.438       8.930       8.097       6.829       5.048       2.744      2.7923E-02
   5    9.999       9.893       9.729       9.438       8.930       8.097       6.829       5.048       2.744      2.7923E-02
   6    9.999       9.893       9.729       9.438       8.930       8.097       6.829       5.048       2.744      2.7923E-02
   7    9.999       9.893       9.729       9.438       8.930       8.097       6.829       5.048       2.744      2.7923E-02
   8    9.999       9.893       9.729       9.438       8.930       8.097       6.829       5.048       2.744      2.7923E-02
   9    9.999       9.893       9.729       9.438       8.930       8.097       6.829       5.048       2.744      2.7923E-02
  10    9.999       9.893       9.729       9.438       8.930       8.097       6.829       5.048       2.744      2.7923E-02

 HEAD WILL BE SAVED ON UNIT   51 AT END OF TIME STEP   86, STRESS PERIOD    2

 DRAWDOWN WILL BE SAVED ON UNIT   52 AT END OF TIME STEP   86, STRESS PERIOD    2
1
  VOLUMETRIC BUDGET FOR ENTIRE MODEL AT END OF TIME STEP   86, STRESS PERIOD   2
  ------------------------------------------------------------------------------

     CUMULATIVE VOLUMES      L**3       RATES FOR THIS TIME STEP      L**3/T
     ------------------                 ------------------------

           IN:                                      IN:
           ---                                      ---
             STORAGE =      292656.6875               STORAGE =        1332.9719
       CONSTANT HEAD =           0.0000         CONSTANT HEAD =           0.0000
               WELLS =           0.0000                 WELLS =           0.0000
     HEAD DEP BOUNDS =        1307.3488       HEAD DEP BOUNDS =          63.1620

            TOTAL IN =      293964.0312              TOTAL IN =        1396.1339

          OUT:                                     OUT:
          ----                                     ----
             STORAGE =           0.0000               STORAGE =           0.0000
       CONSTANT HEAD =           0.0000         CONSTANT HEAD =           0.0000
               WELLS =           0.0000                 WELLS =           0.0000
     HEAD DEP BOUNDS =      293963.9688       HEAD DEP BOUNDS =        1396.1644

           TOTAL OUT =      293963.9688             TOTAL OUT =        1396.1644

            IN - OUT =       6.2500E-02              IN - OUT =      -3.0518E-02

 PERCENT DISCREPANCY =           0.00     PERCENT DISCREPANCY =          -0.00






         TIME SUMMARY AT END OF TIME STEP   86 IN STRESS PERIOD    2
                    SECONDS     MINUTES      HOURS       DAYS        YEARS
                    -----------------------------------------------------------
   TIME STEP LENGTH  86400.      1440.0      24.000      1.0000     2.73785E-03
 STRESS PERIOD TIME 7.43040E+06 1.23840E+05  2064.0      86.000     0.23546    
         TOTAL TIME 7.51680E+06 1.25280E+05  2088.0      87.000     0.23819    
1
 
 SOLVING FOR HEAD 

 OUTPUT CONTROL FOR STRESS PERIOD    2   TIME STEP   87
    SAVE HEAD FOR ALL LAYERS
    SAVE DRAWDOWN FOR ALL LAYERS
    SAVE BUDGET
    PRINT HEAD FOR ALL LAYERS
    PRINT BUDGET
 UBDSV1 SAVING "         STORAGE" ON UNIT  53 AT TIME STEP 87, STRESS PERIOD   2
 UBDSV2 SAVING "   CONSTANT HEAD" ON UNIT  53 AT TIME STEP 87, STRESS PERIOD   2
 UBDSV1 SAVING "FLOW RIGHT FACE " ON UNIT  53 AT TIME STEP 87, STRESS PERIOD   2
 UBDSV1 SAVING "FLOW FRONT FACE " ON UNIT  53 AT TIME STEP 87, STRESS PERIOD   2
1
              HEAD IN LAYER   1 AT END OF TIME STEP  87 IN STRESS PERIOD    2
  ---------------------------------------------------------------------------

            1           2           3           4           5           6           7           8           9          10
 ........................................................................................................................
   1    9.999       9.889       9.722       9.425       8.911       8.073       6.803       5.024       2.729      2.7766E-02
   2    9.999       9.889       9.722       9.425       8.911       8.073       6.803       5.024       2.729      2.7766E-02
   3    9.999       9.889       9.722       9.425       8.911       8.073       6.803       5.024       2.729      2.7766E-02
   4    9.999       9.889       9.722       9.425       8.911       8.073       6.803       5.024       2.729      2.7766E-02
   5    9.999       9.889       9.722       9.425       8.911       8.073       6.803       5.024       2.729      2.7766E-02
   6    9.999       9.889       9.722       9.425       8.911       8.073       6.803       5.024       2.729      2.7766E-02
   7    9.999       9.889       9.722       9.425       8.911       8.073       6.803       5.024       2.729      2.7766E-02
   8    9.999       9.889       9.722       9.425       8.911       8.073       6.803       5.024       2.729      2.7766E-02
   9    9.999       9.889       9.722       9.425       8.911       8.073       6.803       5.024       2.729      2.7766E-02
  10    9.999       9.889       9.722       9.425       8.911       8.073       6.803       5.024       2.729      2.7766E-02

 HEAD WILL BE SAVED ON UNIT   51 AT END OF TIME STEP   87, STRESS PERIOD    2

 DRAWDOWN WILL BE SAVED ON UNIT   52 AT END OF TIME STEP   87, STRESS PERIOD    2
1
  VOLUMETRIC BUDGET FOR ENTIRE MODEL AT END OF TIME STEP   87, STRESS PERIOD   2
  ------------------------------------------------------------------------------

     CUMULATIVE VOLUMES      L**3       RATES FOR THIS TIME STEP      L**3/T
     ------------------                 ------------------------

           IN:                                      IN:
           ---                                      ---
             STORAGE =      293979.6875               STORAGE =        1323.0121
       CONSTANT HEAD =           0.0000         CONSTANT HEAD =           0.0000
               WELLS =           0.0000                 WELLS =           0.0000
     HEAD DEP BOUNDS =        1372.6151       HEAD DEP BOUNDS =          65.2663

            TOTAL IN =      295352.3125              TOTAL IN =        1388.2784

          OUT:                                     OUT:
          ----                                     ----
             STORAGE =           0.0000               STORAGE =           0.0000
       CONSTANT HEAD =           0.0000         CONSTANT HEAD =           0.0000
               WELLS =           0.0000                 WELLS =           0.0000
     HEAD DEP BOUNDS =      295352.2500       HEAD DEP BOUNDS =        1388.2799

           TOTAL OUT =      295352.2500             TOTAL OUT =        1388.2799

            IN - OUT =       6.2500E-02              IN - OUT =      -1.4648E-03

 PERCENT DISCREPANCY =           0.00     PERCENT DISCREPANCY =          -0.00






         TIME SUMMARY AT END OF TIME STEP   87 IN STRESS PERIOD    2
                    SECONDS     MINUTES      HOURS       DAYS        YEARS
                    -----------------------------------------------------------
   TIME STEP LENGTH  86400.      1440.0      24.000      1.0000     2.73785E-03
 STRESS PERIOD TIME 7.51680E+06 1.25280E+05  2088.0      87.000     0.23819    
         TOTAL TIME 7.60320E+06 1.26720E+05  2112.0      88.000     0.24093    
1
 
 SOLVING FOR HEAD 

 OUTPUT CONTROL FOR STRESS PERIOD    2   TIME STEP   88
    SAVE HEAD FOR ALL LAYERS
    SAVE DRAWDOWN FOR ALL LAYERS
    SAVE BUDGET
    PRINT HEAD FOR ALL LAYERS
    PRINT BUDGET
 UBDSV1 SAVING "         STORAGE" ON UNIT  53 AT TIME STEP 88, STRESS PERIOD   2
 UBDSV2 SAVING "   CONSTANT HEAD" ON UNIT  53 AT TIME STEP 88, STRESS PERIOD   2
 UBDSV1 SAVING "FLOW RIGHT FACE " ON UNIT  53 AT TIME STEP 88, STRESS PERIOD   2
 UBDSV1 SAVING "FLOW FRONT FACE " ON UNIT  53 AT TIME STEP 88, STRESS PERIOD   2
1
              HEAD IN LAYER   1 AT END OF TIME STEP  88 IN STRESS PERIOD    2
  ---------------------------------------------------------------------------

            1           2           3           4           5           6           7           8           9          10
 ........................................................................................................................
   1    9.999       9.886       9.714       9.412       8.893       8.049       6.777       5.000       2.714      2.7610E-02
   2    9.999       9.886       9.714       9.412       8.893       8.049       6.777       5.000       2.714      2.7610E-02
   3    9.999       9.886       9.714       9.412       8.893       8.049       6.777       5.000       2.714      2.7610E-02
   4    9.999       9.886       9.714       9.412       8.893       8.049       6.777       5.000       2.714      2.7610E-02
   5    9.999       9.886       9.714       9.412       8.893       8.049       6.777       5.000       2.714      2.7610E-02
   6    9.999       9.886       9.714       9.412       8.893       8.049       6.777       5.000       2.714      2.7610E-02
   7    9.999       9.886       9.714       9.412       8.893       8.049       6.777       5.000       2.714      2.7610E-02
   8    9.999       9.886       9.714       9.412       8.893       8.049       6.777       5.000       2.714      2.7610E-02
   9    9.999       9.886       9.714       9.412       8.893       8.049       6.777       5.000       2.714      2.7610E-02
  10    9.999       9.886       9.714       9.412       8.893       8.049       6.777       5.000       2.714      2.7610E-02

 HEAD WILL BE SAVED ON UNIT   51 AT END OF TIME STEP   88, STRESS PERIOD    2

 DRAWDOWN WILL BE SAVED ON UNIT   52 AT END OF TIME STEP   88, STRESS PERIOD    2
1
  VOLUMETRIC BUDGET FOR ENTIRE MODEL AT END OF TIME STEP   88, STRESS PERIOD   2
  ------------------------------------------------------------------------------

     CUMULATIVE VOLUMES      L**3       RATES FOR THIS TIME STEP      L**3/T
     ------------------                 ------------------------

           IN:                                      IN:
           ---                                      ---
             STORAGE =      295292.8750               STORAGE =        1313.1759
       CONSTANT HEAD =           0.0000         CONSTANT HEAD =           0.0000
               WELLS =           0.0000                 WELLS =           0.0000
     HEAD DEP BOUNDS =        1439.9388       HEAD DEP BOUNDS =          67.3238

            TOTAL IN =      296732.8125              TOTAL IN =        1380.4996

          OUT:                                     OUT:
          ----                                     ----
             STORAGE =           0.0000               STORAGE =           0.0000
       CONSTANT HEAD =           0.0000         CONSTANT HEAD =           0.0000
               WELLS =           0.0000                 WELLS =           0.0000
     HEAD DEP BOUNDS =      296732.7812       HEAD DEP BOUNDS =        1380.5211

           TOTAL OUT =      296732.7812             TOTAL OUT =        1380.5211

            IN - OUT =       3.1250E-02              IN - OUT =      -2.1484E-02

 PERCENT DISCREPANCY =           0.00     PERCENT DISCREPANCY =          -0.00






         TIME SUMMARY AT END OF TIME STEP   88 IN STRESS PERIOD    2
                    SECONDS     MINUTES      HOURS       DAYS        YEARS
                    -----------------------------------------------------------
   TIME STEP LENGTH  86400.      1440.0      24.000      1.0000     2.73785E-03
 STRESS PERIOD TIME 7.60320E+06 1.26720E+05  2112.0      88.000     0.24093    
         TOTAL TIME 7.68960E+06 1.28160E+05  2136.0      89.000     0.24367    
1
 
 SOLVING FOR HEAD 

 OUTPUT CONTROL FOR STRESS PERIOD    2   TIME STEP   89
    SAVE HEAD FOR ALL LAYERS
    SAVE DRAWDOWN FOR ALL LAYERS
    SAVE BUDGET
    PRINT HEAD FOR ALL LAYERS
    PRINT BUDGET
 UBDSV1 SAVING "         STORAGE" ON UNIT  53 AT TIME STEP 89, STRESS PERIOD   2
 UBDSV2 SAVING "   CONSTANT HEAD" ON UNIT  53 AT TIME STEP 89, STRESS PERIOD   2
 UBDSV1 SAVING "FLOW RIGHT FACE " ON UNIT  53 AT TIME STEP 89, STRESS PERIOD   2
 UBDSV1 SAVING "FLOW FRONT FACE " ON UNIT  53 AT TIME STEP 89, STRESS PERIOD   2
1
              HEAD IN LAYER   1 AT END OF TIME STEP  89 IN STRESS PERIOD    2
  ---------------------------------------------------------------------------

            1           2           3           4           5           6           7           8           9          10
 ........................................................................................................................
   1    9.999       9.882       9.706       9.400       8.874       8.026       6.751       4.976       2.699      2.7458E-02
   2    9.999       9.882       9.706       9.400       8.874       8.026       6.751       4.976       2.699      2.7458E-02
   3    9.999       9.882       9.706       9.400       8.874       8.026       6.751       4.976       2.699      2.7458E-02
   4    9.999       9.882       9.706       9.400       8.874       8.026       6.751       4.976       2.699      2.7458E-02
   5    9.999       9.882       9.706       9.400       8.874       8.026       6.751       4.976       2.699      2.7458E-02
   6    9.999       9.882       9.706       9.400       8.874       8.026       6.751       4.976       2.699      2.7458E-02
   7    9.999       9.882       9.706       9.400       8.874       8.026       6.751       4.976       2.699      2.7458E-02
   8    9.999       9.882       9.706       9.400       8.874       8.026       6.751       4.976       2.699      2.7458E-02
   9    9.999       9.882       9.706       9.400       8.874       8.026       6.751       4.976       2.699      2.7458E-02
  10    9.999       9.882       9.706       9.400       8.874       8.026       6.751       4.976       2.699      2.7458E-02

 HEAD WILL BE SAVED ON UNIT   51 AT END OF TIME STEP   89, STRESS PERIOD    2

 DRAWDOWN WILL BE SAVED ON UNIT   52 AT END OF TIME STEP   89, STRESS PERIOD    2
1
  VOLUMETRIC BUDGET FOR ENTIRE MODEL AT END OF TIME STEP   89, STRESS PERIOD   2
  ------------------------------------------------------------------------------

     CUMULATIVE VOLUMES      L**3       RATES FOR THIS TIME STEP      L**3/T
     ------------------                 ------------------------

           IN:                                      IN:
           ---                                      ---
             STORAGE =      296596.3125               STORAGE =        1303.4506
       CONSTANT HEAD =           0.0000         CONSTANT HEAD =           0.0000
               WELLS =           0.0000                 WELLS =           0.0000
     HEAD DEP BOUNDS =        1509.4047       HEAD DEP BOUNDS =          69.4659

            TOTAL IN =      298105.7188              TOTAL IN =        1372.9164

          OUT:                                     OUT:
          ----                                     ----
             STORAGE =           0.0000               STORAGE =           0.0000
       CONSTANT HEAD =           0.0000         CONSTANT HEAD =           0.0000
               WELLS =           0.0000                 WELLS =           0.0000
     HEAD DEP BOUNDS =      298105.6875       HEAD DEP BOUNDS =        1372.8928

           TOTAL OUT =      298105.6875             TOTAL OUT =        1372.8928

            IN - OUT =       3.1250E-02              IN - OUT =       2.3560E-02

 PERCENT DISCREPANCY =           0.00     PERCENT DISCREPANCY =           0.00






         TIME SUMMARY AT END OF TIME STEP   89 IN STRESS PERIOD    2
                    SECONDS     MINUTES      HOURS       DAYS        YEARS
                    -----------------------------------------------------------
   TIME STEP LENGTH  86400.      1440.0      24.000      1.0000     2.73785E-03
 STRESS PERIOD TIME 7.68960E+06 1.28160E+05  2136.0      89.000     0.24367    
         TOTAL TIME 7.77600E+06 1.29600E+05  2160.0      90.000     0.24641    
1
 
 SOLVING FOR HEAD 

 OUTPUT CONTROL FOR STRESS PERIOD    2   TIME STEP   90
    SAVE HEAD FOR ALL LAYERS
    SAVE DRAWDOWN FOR ALL LAYERS
    SAVE BUDGET
    PRINT HEAD FOR ALL LAYERS
    PRINT BUDGET
 UBDSV1 SAVING "         STORAGE" ON UNIT  53 AT TIME STEP 90, STRESS PERIOD   2
 UBDSV2 SAVING "   CONSTANT HEAD" ON UNIT  53 AT TIME STEP 90, STRESS PERIOD   2
 UBDSV1 SAVING "FLOW RIGHT FACE " ON UNIT  53 AT TIME STEP 90, STRESS PERIOD   2
 UBDSV1 SAVING "FLOW FRONT FACE " ON UNIT  53 AT TIME STEP 90, STRESS PERIOD   2
1
              HEAD IN LAYER   1 AT END OF TIME STEP  90 IN STRESS PERIOD    2
  ---------------------------------------------------------------------------

            1           2           3           4           5           6           7           8           9          10
 ........................................................................................................................
   1    9.999       9.879       9.698       9.387       8.856       8.002       6.725       4.953       2.685      2.7308E-02
   2    9.999       9.879       9.698       9.387       8.856       8.002       6.725       4.953       2.685      2.7308E-02
   3    9.999       9.879       9.698       9.387       8.856       8.002       6.725       4.953       2.685      2.7308E-02
   4    9.999       9.879       9.698       9.387       8.856       8.002       6.725       4.953       2.685      2.7308E-02
   5    9.999       9.879       9.698       9.387       8.856       8.002       6.725       4.953       2.685      2.7308E-02
   6    9.999       9.879       9.698       9.387       8.856       8.002       6.725       4.953       2.685      2.7308E-02
   7    9.999       9.879       9.698       9.387       8.856       8.002       6.725       4.953       2.685      2.7308E-02
   8    9.999       9.879       9.698       9.387       8.856       8.002       6.725       4.953       2.685      2.7308E-02
   9    9.999       9.879       9.698       9.387       8.856       8.002       6.725       4.953       2.685      2.7308E-02
  10    9.999       9.879       9.698       9.387       8.856       8.002       6.725       4.953       2.685      2.7308E-02

 HEAD WILL BE SAVED ON UNIT   51 AT END OF TIME STEP   90, STRESS PERIOD    2

 DRAWDOWN WILL BE SAVED ON UNIT   52 AT END OF TIME STEP   90, STRESS PERIOD    2
1
  VOLUMETRIC BUDGET FOR ENTIRE MODEL AT END OF TIME STEP   90, STRESS PERIOD   2
  ------------------------------------------------------------------------------

     CUMULATIVE VOLUMES      L**3       RATES FOR THIS TIME STEP      L**3/T
     ------------------                 ------------------------

           IN:                                      IN:
           ---                                      ---
             STORAGE =      297890.1250               STORAGE =        1293.8230
       CONSTANT HEAD =           0.0000         CONSTANT HEAD =           0.0000
               WELLS =           0.0000                 WELLS =           0.0000
     HEAD DEP BOUNDS =        1580.9647       HEAD DEP BOUNDS =          71.5601

            TOTAL IN =      299471.0938              TOTAL IN =        1365.3831

          OUT:                                     OUT:
          ----                                     ----
             STORAGE =           0.0000               STORAGE =           0.0000
       CONSTANT HEAD =           0.0000         CONSTANT HEAD =           0.0000
               WELLS =           0.0000                 WELLS =           0.0000
     HEAD DEP BOUNDS =      299471.0938       HEAD DEP BOUNDS =        1365.3922

           TOTAL OUT =      299471.0938             TOTAL OUT =        1365.3922

            IN - OUT =           0.0000              IN - OUT =      -9.1553E-03

 PERCENT DISCREPANCY =           0.00     PERCENT DISCREPANCY =          -0.00






         TIME SUMMARY AT END OF TIME STEP   90 IN STRESS PERIOD    2
                    SECONDS     MINUTES      HOURS       DAYS        YEARS
                    -----------------------------------------------------------
   TIME STEP LENGTH  86400.      1440.0      24.000      1.0000     2.73785E-03
 STRESS PERIOD TIME 7.77600E+06 1.29600E+05  2160.0      90.000     0.24641    
         TOTAL TIME 7.86240E+06 1.31040E+05  2184.0      91.000     0.24914    
1
 
 SOLVING FOR HEAD 

 OUTPUT CONTROL FOR STRESS PERIOD    2   TIME STEP   91
    SAVE HEAD FOR ALL LAYERS
    SAVE DRAWDOWN FOR ALL LAYERS
    SAVE BUDGET
    PRINT HEAD FOR ALL LAYERS
    PRINT BUDGET
 UBDSV1 SAVING "         STORAGE" ON UNIT  53 AT TIME STEP 91, STRESS PERIOD   2
 UBDSV2 SAVING "   CONSTANT HEAD" ON UNIT  53 AT TIME STEP 91, STRESS PERIOD   2
 UBDSV1 SAVING "FLOW RIGHT FACE " ON UNIT  53 AT TIME STEP 91, STRESS PERIOD   2
 UBDSV1 SAVING "FLOW FRONT FACE " ON UNIT  53 AT TIME STEP 91, STRESS PERIOD   2
1
              HEAD IN LAYER   1 AT END OF TIME STEP  91 IN STRESS PERIOD    2
  ---------------------------------------------------------------------------

            1           2           3           4           5           6           7           8           9          10
 ........................................................................................................................
   1    9.999       9.875       9.691       9.374       8.837       7.979       6.700       4.930       2.671      2.7160E-02
   2    9.999       9.875       9.691       9.374       8.837       7.979       6.700       4.930       2.671      2.7160E-02
   3    9.999       9.875       9.691       9.374       8.837       7.979       6.700       4.930       2.671      2.7160E-02
   4    9.999       9.875       9.691       9.374       8.837       7.979       6.700       4.930       2.671      2.7160E-02
   5    9.999       9.875       9.691       9.374       8.837       7.979       6.700       4.930       2.671      2.7160E-02
   6    9.999       9.875       9.691       9.374       8.837       7.979       6.700       4.930       2.671      2.7160E-02
   7    9.999       9.875       9.691       9.374       8.837       7.979       6.700       4.930       2.671      2.7160E-02
   8    9.999       9.875       9.691       9.374       8.837       7.979       6.700       4.930       2.671      2.7160E-02
   9    9.999       9.875       9.691       9.374       8.837       7.979       6.700       4.930       2.671      2.7160E-02
  10    9.999       9.875       9.691       9.374       8.837       7.979       6.700       4.930       2.671      2.7160E-02

 HEAD WILL BE SAVED ON UNIT   51 AT END OF TIME STEP   91, STRESS PERIOD    2

 DRAWDOWN WILL BE SAVED ON UNIT   52 AT END OF TIME STEP   91, STRESS PERIOD    2
1
  VOLUMETRIC BUDGET FOR ENTIRE MODEL AT END OF TIME STEP   91, STRESS PERIOD   2
  ------------------------------------------------------------------------------

     CUMULATIVE VOLUMES      L**3       RATES FOR THIS TIME STEP      L**3/T
     ------------------                 ------------------------

           IN:                                      IN:
           ---                                      ---
             STORAGE =      299174.4375               STORAGE =        1284.2994
       CONSTANT HEAD =           0.0000         CONSTANT HEAD =           0.0000
               WELLS =           0.0000                 WELLS =           0.0000
     HEAD DEP BOUNDS =        1654.7030       HEAD DEP BOUNDS =          73.7383

            TOTAL IN =      300829.1250              TOTAL IN =        1358.0377

          OUT:                                     OUT:
          ----                                     ----
             STORAGE =           0.0000               STORAGE =           0.0000
       CONSTANT HEAD =           0.0000         CONSTANT HEAD =           0.0000
               WELLS =           0.0000                 WELLS =           0.0000
     HEAD DEP BOUNDS =      300829.0938       HEAD DEP BOUNDS =        1358.0087

           TOTAL OUT =      300829.0938             TOTAL OUT =        1358.0087

            IN - OUT =       3.1250E-02              IN - OUT =       2.9053E-02

 PERCENT DISCREPANCY =           0.00     PERCENT DISCREPANCY =           0.00






         TIME SUMMARY AT END OF TIME STEP   91 IN STRESS PERIOD    2
                    SECONDS     MINUTES      HOURS       DAYS        YEARS
                    -----------------------------------------------------------
   TIME STEP LENGTH  86400.      1440.0      24.000      1.0000     2.73785E-03
 STRESS PERIOD TIME 7.86240E+06 1.31040E+05  2184.0      91.000     0.24914    
         TOTAL TIME 7.94880E+06 1.32480E+05  2208.0      92.000     0.25188    
1
 
 SOLVING FOR HEAD 

 OUTPUT CONTROL FOR STRESS PERIOD    2   TIME STEP   92
    SAVE HEAD FOR ALL LAYERS
    SAVE DRAWDOWN FOR ALL LAYERS
    SAVE BUDGET
    PRINT HEAD FOR ALL LAYERS
    PRINT BUDGET
 UBDSV1 SAVING "         STORAGE" ON UNIT  53 AT TIME STEP 92, STRESS PERIOD   2
 UBDSV2 SAVING "   CONSTANT HEAD" ON UNIT  53 AT TIME STEP 92, STRESS PERIOD   2
 UBDSV1 SAVING "FLOW RIGHT FACE " ON UNIT  53 AT TIME STEP 92, STRESS PERIOD   2
 UBDSV1 SAVING "FLOW FRONT FACE " ON UNIT  53 AT TIME STEP 92, STRESS PERIOD   2
1
              HEAD IN LAYER   1 AT END OF TIME STEP  92 IN STRESS PERIOD    2
  ---------------------------------------------------------------------------

            1           2           3           4           5           6           7           8           9          10
 ........................................................................................................................
   1    9.999       9.872       9.683       9.361       8.819       7.956       6.675       4.908       2.657      2.7015E-02
   2    9.999       9.872       9.683       9.361       8.819       7.956       6.675       4.908       2.657      2.7015E-02
   3    9.999       9.872       9.683       9.361       8.819       7.956       6.675       4.908       2.657      2.7015E-02
   4    9.999       9.872       9.683       9.361       8.819       7.956       6.675       4.908       2.657      2.7015E-02
   5    9.999       9.872       9.683       9.361       8.819       7.956       6.675       4.908       2.657      2.7015E-02
   6    9.999       9.872       9.683       9.361       8.819       7.956       6.675       4.908       2.657      2.7015E-02
   7    9.999       9.872       9.683       9.361       8.819       7.956       6.675       4.908       2.657      2.7015E-02
   8    9.999       9.872       9.683       9.361       8.819       7.956       6.675       4.908       2.657      2.7015E-02
   9    9.999       9.872       9.683       9.361       8.819       7.956       6.675       4.908       2.657      2.7015E-02
  10    9.999       9.872       9.683       9.361       8.819       7.956       6.675       4.908       2.657      2.7015E-02

 HEAD WILL BE SAVED ON UNIT   51 AT END OF TIME STEP   92, STRESS PERIOD    2

 DRAWDOWN WILL BE SAVED ON UNIT   52 AT END OF TIME STEP   92, STRESS PERIOD    2
1
  VOLUMETRIC BUDGET FOR ENTIRE MODEL AT END OF TIME STEP   92, STRESS PERIOD   2
  ------------------------------------------------------------------------------

     CUMULATIVE VOLUMES      L**3       RATES FOR THIS TIME STEP      L**3/T
     ------------------                 ------------------------

           IN:                                      IN:
           ---                                      ---
             STORAGE =      300449.2812               STORAGE =        1274.8531
       CONSTANT HEAD =           0.0000         CONSTANT HEAD =           0.0000
               WELLS =           0.0000                 WELLS =           0.0000
     HEAD DEP BOUNDS =        1730.5693       HEAD DEP BOUNDS =          75.8663

            TOTAL IN =      302179.8438              TOTAL IN =        1350.7195

          OUT:                                     OUT:
          ----                                     ----
             STORAGE =           0.0000               STORAGE =           0.0000
       CONSTANT HEAD =           0.0000         CONSTANT HEAD =           0.0000
               WELLS =           0.0000                 WELLS =           0.0000
     HEAD DEP BOUNDS =      302179.8438       HEAD DEP BOUNDS =        1350.7474

           TOTAL OUT =      302179.8438             TOTAL OUT =        1350.7474

            IN - OUT =           0.0000              IN - OUT =      -2.7954E-02

 PERCENT DISCREPANCY =           0.00     PERCENT DISCREPANCY =          -0.00






         TIME SUMMARY AT END OF TIME STEP   92 IN STRESS PERIOD    2
                    SECONDS     MINUTES      HOURS       DAYS        YEARS
                    -----------------------------------------------------------
   TIME STEP LENGTH  86400.      1440.0      24.000      1.0000     2.73785E-03
 STRESS PERIOD TIME 7.94880E+06 1.32480E+05  2208.0      92.000     0.25188    
         TOTAL TIME 8.03520E+06 1.33920E+05  2232.0      93.000     0.25462    
1
 
 SOLVING FOR HEAD 

 OUTPUT CONTROL FOR STRESS PERIOD    2   TIME STEP   93
    SAVE HEAD FOR ALL LAYERS
    SAVE DRAWDOWN FOR ALL LAYERS
    SAVE BUDGET
    PRINT HEAD FOR ALL LAYERS
    PRINT BUDGET
 UBDSV1 SAVING "         STORAGE" ON UNIT  53 AT TIME STEP 93, STRESS PERIOD   2
 UBDSV2 SAVING "   CONSTANT HEAD" ON UNIT  53 AT TIME STEP 93, STRESS PERIOD   2
 UBDSV1 SAVING "FLOW RIGHT FACE " ON UNIT  53 AT TIME STEP 93, STRESS PERIOD   2
 UBDSV1 SAVING "FLOW FRONT FACE " ON UNIT  53 AT TIME STEP 93, STRESS PERIOD   2
1
              HEAD IN LAYER   1 AT END OF TIME STEP  93 IN STRESS PERIOD    2
  ---------------------------------------------------------------------------

            1           2           3           4           5           6           7           8           9          10
 ........................................................................................................................
   1    9.999       9.868       9.675       9.348       8.801       7.933       6.650       4.886       2.643      2.6872E-02
   2    9.999       9.868       9.675       9.348       8.801       7.933       6.650       4.886       2.643      2.6872E-02
   3    9.999       9.868       9.675       9.348       8.801       7.933       6.650       4.886       2.643      2.6872E-02
   4    9.999       9.868       9.675       9.348       8.801       7.933       6.650       4.886       2.643      2.6872E-02
   5    9.999       9.868       9.675       9.348       8.801       7.933       6.650       4.886       2.643      2.6872E-02
   6    9.999       9.868       9.675       9.348       8.801       7.933       6.650       4.886       2.643      2.6872E-02
   7    9.999       9.868       9.675       9.348       8.801       7.933       6.650       4.886       2.643      2.6872E-02
   8    9.999       9.868       9.675       9.348       8.801       7.933       6.650       4.886       2.643      2.6872E-02
   9    9.999       9.868       9.675       9.348       8.801       7.933       6.650       4.886       2.643      2.6872E-02
  10    9.999       9.868       9.675       9.348       8.801       7.933       6.650       4.886       2.643      2.6872E-02

 HEAD WILL BE SAVED ON UNIT   51 AT END OF TIME STEP   93, STRESS PERIOD    2

 DRAWDOWN WILL BE SAVED ON UNIT   52 AT END OF TIME STEP   93, STRESS PERIOD    2
1
  VOLUMETRIC BUDGET FOR ENTIRE MODEL AT END OF TIME STEP   93, STRESS PERIOD   2
  ------------------------------------------------------------------------------

     CUMULATIVE VOLUMES      L**3       RATES FOR THIS TIME STEP      L**3/T
     ------------------                 ------------------------

           IN:                                      IN:
           ---                                      ---
             STORAGE =      301714.8125               STORAGE =        1265.5344
       CONSTANT HEAD =           0.0000         CONSTANT HEAD =           0.0000
               WELLS =           0.0000                 WELLS =           0.0000
     HEAD DEP BOUNDS =        1808.6467       HEAD DEP BOUNDS =          78.0774

            TOTAL IN =      303523.4688              TOTAL IN =        1343.6118

          OUT:                                     OUT:
          ----                                     ----
             STORAGE =           0.0000               STORAGE =           0.0000
       CONSTANT HEAD =           0.0000         CONSTANT HEAD =           0.0000
               WELLS =           0.0000                 WELLS =           0.0000
     HEAD DEP BOUNDS =      303523.4375       HEAD DEP BOUNDS =        1343.5978

           TOTAL OUT =      303523.4375             TOTAL OUT =        1343.5978

            IN - OUT =       3.1250E-02              IN - OUT =       1.4038E-02

 PERCENT DISCREPANCY =           0.00     PERCENT DISCREPANCY =           0.00






         TIME SUMMARY AT END OF TIME STEP   93 IN STRESS PERIOD    2
                    SECONDS     MINUTES      HOURS       DAYS        YEARS
                    -----------------------------------------------------------
   TIME STEP LENGTH  86400.      1440.0      24.000      1.0000     2.73785E-03
 STRESS PERIOD TIME 8.03520E+06 1.33920E+05  2232.0      93.000     0.25462    
         TOTAL TIME 8.12160E+06 1.35360E+05  2256.0      94.000     0.25736    
1
 
 SOLVING FOR HEAD 

 OUTPUT CONTROL FOR STRESS PERIOD    2   TIME STEP   94
    SAVE HEAD FOR ALL LAYERS
    SAVE DRAWDOWN FOR ALL LAYERS
    SAVE BUDGET
    PRINT HEAD FOR ALL LAYERS
    PRINT BUDGET
 UBDSV1 SAVING "         STORAGE" ON UNIT  53 AT TIME STEP 94, STRESS PERIOD   2
 UBDSV2 SAVING "   CONSTANT HEAD" ON UNIT  53 AT TIME STEP 94, STRESS PERIOD   2
 UBDSV1 SAVING "FLOW RIGHT FACE " ON UNIT  53 AT TIME STEP 94, STRESS PERIOD   2
 UBDSV1 SAVING "FLOW FRONT FACE " ON UNIT  53 AT TIME STEP 94, STRESS PERIOD   2
1
              HEAD IN LAYER   1 AT END OF TIME STEP  94 IN STRESS PERIOD    2
  ---------------------------------------------------------------------------

            1           2           3           4           5           6           7           8           9          10
 ........................................................................................................................
   1    9.999       9.864       9.667       9.335       8.782       7.910       6.625       4.864       2.630      2.6731E-02
   2    9.999       9.864       9.667       9.335       8.782       7.910       6.625       4.864       2.630      2.6731E-02
   3    9.999       9.864       9.667       9.335       8.782       7.910       6.625       4.864       2.630      2.6731E-02
   4    9.999       9.864       9.667       9.335       8.782       7.910       6.625       4.864       2.630      2.6731E-02
   5    9.999       9.864       9.667       9.335       8.782       7.910       6.625       4.864       2.630      2.6731E-02
   6    9.999       9.864       9.667       9.335       8.782       7.910       6.625       4.864       2.630      2.6731E-02
   7    9.999       9.864       9.667       9.335       8.782       7.910       6.625       4.864       2.630      2.6731E-02
   8    9.999       9.864       9.667       9.335       8.782       7.910       6.625       4.864       2.630      2.6731E-02
   9    9.999       9.864       9.667       9.335       8.782       7.910       6.625       4.864       2.630      2.6731E-02
  10    9.999       9.864       9.667       9.335       8.782       7.910       6.625       4.864       2.630      2.6731E-02

 HEAD WILL BE SAVED ON UNIT   51 AT END OF TIME STEP   94, STRESS PERIOD    2

 DRAWDOWN WILL BE SAVED ON UNIT   52 AT END OF TIME STEP   94, STRESS PERIOD    2
1
  VOLUMETRIC BUDGET FOR ENTIRE MODEL AT END OF TIME STEP   94, STRESS PERIOD   2
  ------------------------------------------------------------------------------

     CUMULATIVE VOLUMES      L**3       RATES FOR THIS TIME STEP      L**3/T
     ------------------                 ------------------------

           IN:                                      IN:
           ---                                      ---
             STORAGE =      302971.1250               STORAGE =        1256.2990
       CONSTANT HEAD =           0.0000         CONSTANT HEAD =           0.0000
               WELLS =           0.0000                 WELLS =           0.0000
     HEAD DEP BOUNDS =        1888.9507       HEAD DEP BOUNDS =          80.3040

            TOTAL IN =      304860.0625              TOTAL IN =        1336.6029

          OUT:                                     OUT:
          ----                                     ----
             STORAGE =           0.0000               STORAGE =           0.0000
       CONSTANT HEAD =           0.0000         CONSTANT HEAD =           0.0000
               WELLS =           0.0000                 WELLS =           0.0000
     HEAD DEP BOUNDS =      304860.0000       HEAD DEP BOUNDS =        1336.5658

           TOTAL OUT =      304860.0000             TOTAL OUT =        1336.5658

            IN - OUT =       6.2500E-02              IN - OUT =       3.7109E-02

 PERCENT DISCREPANCY =           0.00     PERCENT DISCREPANCY =           0.00






         TIME SUMMARY AT END OF TIME STEP   94 IN STRESS PERIOD    2
                    SECONDS     MINUTES      HOURS       DAYS        YEARS
                    -----------------------------------------------------------
   TIME STEP LENGTH  86400.      1440.0      24.000      1.0000     2.73785E-03
 STRESS PERIOD TIME 8.12160E+06 1.35360E+05  2256.0      94.000     0.25736    
         TOTAL TIME 8.20800E+06 1.36800E+05  2280.0      95.000     0.26010    
1
 
 SOLVING FOR HEAD 

 OUTPUT CONTROL FOR STRESS PERIOD    2   TIME STEP   95
    SAVE HEAD FOR ALL LAYERS
    SAVE DRAWDOWN FOR ALL LAYERS
    SAVE BUDGET
    PRINT HEAD FOR ALL LAYERS
    PRINT BUDGET
 UBDSV1 SAVING "         STORAGE" ON UNIT  53 AT TIME STEP 95, STRESS PERIOD   2
 UBDSV2 SAVING "   CONSTANT HEAD" ON UNIT  53 AT TIME STEP 95, STRESS PERIOD   2
 UBDSV1 SAVING "FLOW RIGHT FACE " ON UNIT  53 AT TIME STEP 95, STRESS PERIOD   2
 UBDSV1 SAVING "FLOW FRONT FACE " ON UNIT  53 AT TIME STEP 95, STRESS PERIOD   2
1
              HEAD IN LAYER   1 AT END OF TIME STEP  95 IN STRESS PERIOD    2
  ---------------------------------------------------------------------------

            1           2           3           4           5           6           7           8           9          10
 ........................................................................................................................
   1    9.999       9.860       9.659       9.322       8.764       7.888       6.601       4.842       2.616      2.6593E-02
   2    9.999       9.860       9.659       9.322       8.764       7.888       6.601       4.842       2.616      2.6593E-02
   3    9.999       9.860       9.659       9.322       8.764       7.888       6.601       4.842       2.616      2.6593E-02
   4    9.999       9.860       9.659       9.322       8.764       7.888       6.601       4.842       2.616      2.6593E-02
   5    9.999       9.860       9.659       9.322       8.764       7.888       6.601       4.842       2.616      2.6593E-02
   6    9.999       9.860       9.659       9.322       8.764       7.888       6.601       4.842       2.616      2.6593E-02
   7    9.999       9.860       9.659       9.322       8.764       7.888       6.601       4.842       2.616      2.6593E-02
   8    9.999       9.860       9.659       9.322       8.764       7.888       6.601       4.842       2.616      2.6593E-02
   9    9.999       9.860       9.659       9.322       8.764       7.888       6.601       4.842       2.616      2.6593E-02
  10    9.999       9.860       9.659       9.322       8.764       7.888       6.601       4.842       2.616      2.6593E-02

 HEAD WILL BE SAVED ON UNIT   51 AT END OF TIME STEP   95, STRESS PERIOD    2

 DRAWDOWN WILL BE SAVED ON UNIT   52 AT END OF TIME STEP   95, STRESS PERIOD    2
1
  VOLUMETRIC BUDGET FOR ENTIRE MODEL AT END OF TIME STEP   95, STRESS PERIOD   2
  ------------------------------------------------------------------------------

     CUMULATIVE VOLUMES      L**3       RATES FOR THIS TIME STEP      L**3/T
     ------------------                 ------------------------

           IN:                                      IN:
           ---                                      ---
             STORAGE =      304218.2500               STORAGE =        1247.1290
       CONSTANT HEAD =           0.0000         CONSTANT HEAD =           0.0000
               WELLS =           0.0000                 WELLS =           0.0000
     HEAD DEP BOUNDS =        1971.4296       HEAD DEP BOUNDS =          82.4789

            TOTAL IN =      306189.6875              TOTAL IN =        1329.6079

          OUT:                                     OUT:
          ----                                     ----
             STORAGE =           0.0000               STORAGE =           0.0000
       CONSTANT HEAD =           0.0000         CONSTANT HEAD =           0.0000
               WELLS =           0.0000                 WELLS =           0.0000
     HEAD DEP BOUNDS =      306189.6250       HEAD DEP BOUNDS =        1329.6403

           TOTAL OUT =      306189.6250             TOTAL OUT =        1329.6403

            IN - OUT =       6.2500E-02              IN - OUT =      -3.2349E-02

 PERCENT DISCREPANCY =           0.00     PERCENT DISCREPANCY =          -0.00






         TIME SUMMARY AT END OF TIME STEP   95 IN STRESS PERIOD    2
                    SECONDS     MINUTES      HOURS       DAYS        YEARS
                    -----------------------------------------------------------
   TIME STEP LENGTH  86400.      1440.0      24.000      1.0000     2.73785E-03
 STRESS PERIOD TIME 8.20800E+06 1.36800E+05  2280.0      95.000     0.26010    
         TOTAL TIME 8.29440E+06 1.38240E+05  2304.0      96.000     0.26283    
1
 
 SOLVING FOR HEAD 

 OUTPUT CONTROL FOR STRESS PERIOD    2   TIME STEP   96
    SAVE HEAD FOR ALL LAYERS
    SAVE DRAWDOWN FOR ALL LAYERS
    SAVE BUDGET
    PRINT HEAD FOR ALL LAYERS
    PRINT BUDGET
 UBDSV1 SAVING "         STORAGE" ON UNIT  53 AT TIME STEP 96, STRESS PERIOD   2
 UBDSV2 SAVING "   CONSTANT HEAD" ON UNIT  53 AT TIME STEP 96, STRESS PERIOD   2
 UBDSV1 SAVING "FLOW RIGHT FACE " ON UNIT  53 AT TIME STEP 96, STRESS PERIOD   2
 UBDSV1 SAVING "FLOW FRONT FACE " ON UNIT  53 AT TIME STEP 96, STRESS PERIOD   2
1
              HEAD IN LAYER   1 AT END OF TIME STEP  96 IN STRESS PERIOD    2
  ---------------------------------------------------------------------------

            1           2           3           4           5           6           7           8           9          10
 ........................................................................................................................
   1    9.999       9.857       9.651       9.309       8.746       7.865       6.577       4.821       2.603      2.6456E-02
   2    9.999       9.857       9.651       9.309       8.746       7.865       6.577       4.821       2.603      2.6456E-02
   3    9.999       9.857       9.651       9.309       8.746       7.865       6.577       4.821       2.603      2.6456E-02
   4    9.999       9.857       9.651       9.309       8.746       7.865       6.577       4.821       2.603      2.6456E-02
   5    9.999       9.857       9.651       9.309       8.746       7.865       6.577       4.821       2.603      2.6456E-02
   6    9.999       9.857       9.651       9.309       8.746       7.865       6.577       4.821       2.603      2.6456E-02
   7    9.999       9.857       9.651       9.309       8.746       7.865       6.577       4.821       2.603      2.6456E-02
   8    9.999       9.857       9.651       9.309       8.746       7.865       6.577       4.821       2.603      2.6456E-02
   9    9.999       9.857       9.651       9.309       8.746       7.865       6.577       4.821       2.603      2.6456E-02
  10    9.999       9.857       9.651       9.309       8.746       7.865       6.577       4.821       2.603      2.6456E-02

 HEAD WILL BE SAVED ON UNIT   51 AT END OF TIME STEP   96, STRESS PERIOD    2

 DRAWDOWN WILL BE SAVED ON UNIT   52 AT END OF TIME STEP   96, STRESS PERIOD    2
1
  VOLUMETRIC BUDGET FOR ENTIRE MODEL AT END OF TIME STEP   96, STRESS PERIOD   2
  ------------------------------------------------------------------------------

     CUMULATIVE VOLUMES      L**3       RATES FOR THIS TIME STEP      L**3/T
     ------------------                 ------------------------

           IN:                                      IN:
           ---                                      ---
             STORAGE =      305456.3438               STORAGE =        1238.1040
       CONSTANT HEAD =           0.0000         CONSTANT HEAD =           0.0000
               WELLS =           0.0000                 WELLS =           0.0000
     HEAD DEP BOUNDS =        2056.1641       HEAD DEP BOUNDS =          84.7344

            TOTAL IN =      307512.5000              TOTAL IN =        1322.8384

          OUT:                                     OUT:
          ----                                     ----
             STORAGE =           0.0000               STORAGE =           0.0000
       CONSTANT HEAD =           0.0000         CONSTANT HEAD =           0.0000
               WELLS =           0.0000                 WELLS =           0.0000
     HEAD DEP BOUNDS =      307512.4375       HEAD DEP BOUNDS =        1322.8193

           TOTAL OUT =      307512.4375             TOTAL OUT =        1322.8193

            IN - OUT =       6.2500E-02              IN - OUT =       1.9043E-02

 PERCENT DISCREPANCY =           0.00     PERCENT DISCREPANCY =           0.00






         TIME SUMMARY AT END OF TIME STEP   96 IN STRESS PERIOD    2
                    SECONDS     MINUTES      HOURS       DAYS        YEARS
                    -----------------------------------------------------------
   TIME STEP LENGTH  86400.      1440.0      24.000      1.0000     2.73785E-03
 STRESS PERIOD TIME 8.29440E+06 1.38240E+05  2304.0      96.000     0.26283    
         TOTAL TIME 8.38080E+06 1.39680E+05  2328.0      97.000     0.26557    
1
 
 SOLVING FOR HEAD 

 OUTPUT CONTROL FOR STRESS PERIOD    2   TIME STEP   97
    SAVE HEAD FOR ALL LAYERS
    SAVE DRAWDOWN FOR ALL LAYERS
    SAVE BUDGET
    PRINT HEAD FOR ALL LAYERS
    PRINT BUDGET
 UBDSV1 SAVING "         STORAGE" ON UNIT  53 AT TIME STEP 97, STRESS PERIOD   2
 UBDSV2 SAVING "   CONSTANT HEAD" ON UNIT  53 AT TIME STEP 97, STRESS PERIOD   2
 UBDSV1 SAVING "FLOW RIGHT FACE " ON UNIT  53 AT TIME STEP 97, STRESS PERIOD   2
 UBDSV1 SAVING "FLOW FRONT FACE " ON UNIT  53 AT TIME STEP 97, STRESS PERIOD   2
1
              HEAD IN LAYER   1 AT END OF TIME STEP  97 IN STRESS PERIOD    2
  ---------------------------------------------------------------------------

            1           2           3           4           5           6           7           8           9          10
 ........................................................................................................................
   1    9.999       9.853       9.643       9.296       8.728       7.843       6.553       4.800       2.590      2.6322E-02
   2    9.999       9.853       9.643       9.296       8.728       7.843       6.553       4.800       2.590      2.6322E-02
   3    9.999       9.853       9.643       9.296       8.728       7.843       6.553       4.800       2.590      2.6322E-02
   4    9.999       9.853       9.643       9.296       8.728       7.843       6.553       4.800       2.590      2.6322E-02
   5    9.999       9.853       9.643       9.296       8.728       7.843       6.553       4.800       2.590      2.6322E-02
   6    9.999       9.853       9.643       9.296       8.728       7.843       6.553       4.800       2.590      2.6322E-02
   7    9.999       9.853       9.643       9.296       8.728       7.843       6.553       4.800       2.590      2.6322E-02
   8    9.999       9.853       9.643       9.296       8.728       7.843       6.553       4.800       2.590      2.6322E-02
   9    9.999       9.853       9.643       9.296       8.728       7.843       6.553       4.800       2.590      2.6322E-02
  10    9.999       9.853       9.643       9.296       8.728       7.843       6.553       4.800       2.590      2.6322E-02

 HEAD WILL BE SAVED ON UNIT   51 AT END OF TIME STEP   97, STRESS PERIOD    2

 DRAWDOWN WILL BE SAVED ON UNIT   52 AT END OF TIME STEP   97, STRESS PERIOD    2
1
  VOLUMETRIC BUDGET FOR ENTIRE MODEL AT END OF TIME STEP   97, STRESS PERIOD   2
  ------------------------------------------------------------------------------

     CUMULATIVE VOLUMES      L**3       RATES FOR THIS TIME STEP      L**3/T
     ------------------                 ------------------------

           IN:                                      IN:
           ---                                      ---
             STORAGE =      306685.4688               STORAGE =        1229.1250
       CONSTANT HEAD =           0.0000         CONSTANT HEAD =           0.0000
               WELLS =           0.0000                 WELLS =           0.0000
     HEAD DEP BOUNDS =        2143.1675       HEAD DEP BOUNDS =          87.0035

            TOTAL IN =      308828.6250              TOTAL IN =        1316.1285

          OUT:                                     OUT:
          ----                                     ----
             STORAGE =           0.0000               STORAGE =           0.0000
       CONSTANT HEAD =           0.0000         CONSTANT HEAD =           0.0000
               WELLS =           0.0000                 WELLS =           0.0000
     HEAD DEP BOUNDS =      308828.5312       HEAD DEP BOUNDS =        1316.1088

           TOTAL OUT =      308828.5312             TOTAL OUT =        1316.1088

            IN - OUT =       9.3750E-02              IN - OUT =       1.9775E-02

 PERCENT DISCREPANCY =           0.00     PERCENT DISCREPANCY =           0.00






         TIME SUMMARY AT END OF TIME STEP   97 IN STRESS PERIOD    2
                    SECONDS     MINUTES      HOURS       DAYS        YEARS
                    -----------------------------------------------------------
   TIME STEP LENGTH  86400.      1440.0      24.000      1.0000     2.73785E-03
 STRESS PERIOD TIME 8.38080E+06 1.39680E+05  2328.0      97.000     0.26557    
         TOTAL TIME 8.46720E+06 1.41120E+05  2352.0      98.000     0.26831    
1
 
 SOLVING FOR HEAD 

 OUTPUT CONTROL FOR STRESS PERIOD    2   TIME STEP   98
    SAVE HEAD FOR ALL LAYERS
    SAVE DRAWDOWN FOR ALL LAYERS
    SAVE BUDGET
    PRINT HEAD FOR ALL LAYERS
    PRINT BUDGET
 UBDSV1 SAVING "         STORAGE" ON UNIT  53 AT TIME STEP 98, STRESS PERIOD   2
 UBDSV2 SAVING "   CONSTANT HEAD" ON UNIT  53 AT TIME STEP 98, STRESS PERIOD   2
 UBDSV1 SAVING "FLOW RIGHT FACE " ON UNIT  53 AT TIME STEP 98, STRESS PERIOD   2
 UBDSV1 SAVING "FLOW FRONT FACE " ON UNIT  53 AT TIME STEP 98, STRESS PERIOD   2
1
              HEAD IN LAYER   1 AT END OF TIME STEP  98 IN STRESS PERIOD    2
  ---------------------------------------------------------------------------

            1           2           3           4           5           6           7           8           9          10
 ........................................................................................................................
   1    9.999       9.849       9.635       9.283       8.710       7.821       6.529       4.779       2.578      2.6190E-02
   2    9.999       9.849       9.635       9.283       8.710       7.821       6.529       4.779       2.578      2.6190E-02
   3    9.999       9.849       9.635       9.283       8.710       7.821       6.529       4.779       2.578      2.6190E-02
   4    9.999       9.849       9.635       9.283       8.710       7.821       6.529       4.779       2.578      2.6190E-02
   5    9.999       9.849       9.635       9.283       8.710       7.821       6.529       4.779       2.578      2.6190E-02
   6    9.999       9.849       9.635       9.283       8.710       7.821       6.529       4.779       2.578      2.6190E-02
   7    9.999       9.849       9.635       9.283       8.710       7.821       6.529       4.779       2.578      2.6190E-02
   8    9.999       9.849       9.635       9.283       8.710       7.821       6.529       4.779       2.578      2.6190E-02
   9    9.999       9.849       9.635       9.283       8.710       7.821       6.529       4.779       2.578      2.6190E-02
  10    9.999       9.849       9.635       9.283       8.710       7.821       6.529       4.779       2.578      2.6190E-02

 HEAD WILL BE SAVED ON UNIT   51 AT END OF TIME STEP   98, STRESS PERIOD    2

 DRAWDOWN WILL BE SAVED ON UNIT   52 AT END OF TIME STEP   98, STRESS PERIOD    2
1
  VOLUMETRIC BUDGET FOR ENTIRE MODEL AT END OF TIME STEP   98, STRESS PERIOD   2
  ------------------------------------------------------------------------------

     CUMULATIVE VOLUMES      L**3       RATES FOR THIS TIME STEP      L**3/T
     ------------------                 ------------------------

           IN:                                      IN:
           ---                                      ---
             STORAGE =      307905.7188               STORAGE =        1220.2415
       CONSTANT HEAD =           0.0000         CONSTANT HEAD =           0.0000
               WELLS =           0.0000                 WELLS =           0.0000
     HEAD DEP BOUNDS =        2232.4529       HEAD DEP BOUNDS =          89.2854

            TOTAL IN =      310138.1562              TOTAL IN =        1309.5269

          OUT:                                     OUT:
          ----                                     ----
             STORAGE =           0.0000               STORAGE =           0.0000
       CONSTANT HEAD =           0.0000         CONSTANT HEAD =           0.0000
               WELLS =           0.0000                 WELLS =           0.0000
     HEAD DEP BOUNDS =      310138.0312       HEAD DEP BOUNDS =        1309.4904

           TOTAL OUT =      310138.0312             TOTAL OUT =        1309.4904

            IN - OUT =           0.1250              IN - OUT =       3.6499E-02

 PERCENT DISCREPANCY =           0.00     PERCENT DISCREPANCY =           0.00






         TIME SUMMARY AT END OF TIME STEP   98 IN STRESS PERIOD    2
                    SECONDS     MINUTES      HOURS       DAYS        YEARS
                    -----------------------------------------------------------
   TIME STEP LENGTH  86400.      1440.0      24.000      1.0000     2.73785E-03
 STRESS PERIOD TIME 8.46720E+06 1.41120E+05  2352.0      98.000     0.26831    
         TOTAL TIME 8.55360E+06 1.42560E+05  2376.0      99.000     0.27105    
1
 
 SOLVING FOR HEAD 

 OUTPUT CONTROL FOR STRESS PERIOD    2   TIME STEP   99
    SAVE HEAD FOR ALL LAYERS
    SAVE DRAWDOWN FOR ALL LAYERS
    SAVE BUDGET
    PRINT HEAD FOR ALL LAYERS
    PRINT BUDGET
 UBDSV1 SAVING "         STORAGE" ON UNIT  53 AT TIME STEP 99, STRESS PERIOD   2
 UBDSV2 SAVING "   CONSTANT HEAD" ON UNIT  53 AT TIME STEP 99, STRESS PERIOD   2
 UBDSV1 SAVING "FLOW RIGHT FACE " ON UNIT  53 AT TIME STEP 99, STRESS PERIOD   2
 UBDSV1 SAVING "FLOW FRONT FACE " ON UNIT  53 AT TIME STEP 99, STRESS PERIOD   2
1
              HEAD IN LAYER   1 AT END OF TIME STEP  99 IN STRESS PERIOD    2
  ---------------------------------------------------------------------------

            1           2           3           4           5           6           7           8           9          10
 ........................................................................................................................
   1    9.998       9.845       9.627       9.271       8.692       7.799       6.506       4.759       2.565      2.6059E-02
   2    9.998       9.845       9.627       9.271       8.692       7.799       6.506       4.759       2.565      2.6059E-02
   3    9.998       9.845       9.627       9.271       8.692       7.799       6.506       4.759       2.565      2.6059E-02
   4    9.998       9.845       9.627       9.271       8.692       7.799       6.506       4.759       2.565      2.6059E-02
   5    9.998       9.845       9.627       9.271       8.692       7.799       6.506       4.759       2.565      2.6059E-02
   6    9.998       9.845       9.627       9.271       8.692       7.799       6.506       4.759       2.565      2.6059E-02
   7    9.998       9.845       9.627       9.271       8.692       7.799       6.506       4.759       2.565      2.6059E-02
   8    9.998       9.845       9.627       9.271       8.692       7.799       6.506       4.759       2.565      2.6059E-02
   9    9.998       9.845       9.627       9.271       8.692       7.799       6.506       4.759       2.565      2.6059E-02
  10    9.998       9.845       9.627       9.271       8.692       7.799       6.506       4.759       2.565      2.6059E-02

 HEAD WILL BE SAVED ON UNIT   51 AT END OF TIME STEP   99, STRESS PERIOD    2

 DRAWDOWN WILL BE SAVED ON UNIT   52 AT END OF TIME STEP   99, STRESS PERIOD    2
1
  VOLUMETRIC BUDGET FOR ENTIRE MODEL AT END OF TIME STEP   99, STRESS PERIOD   2
  ------------------------------------------------------------------------------

     CUMULATIVE VOLUMES      L**3       RATES FOR THIS TIME STEP      L**3/T
     ------------------                 ------------------------

           IN:                                      IN:
           ---                                      ---
             STORAGE =      309117.1562               STORAGE =        1211.4230
       CONSTANT HEAD =           0.0000         CONSTANT HEAD =           0.0000
               WELLS =           0.0000                 WELLS =           0.0000
     HEAD DEP BOUNDS =        2323.9663       HEAD DEP BOUNDS =          91.5134

            TOTAL IN =      311441.1250              TOTAL IN =        1302.9364

          OUT:                                     OUT:
          ----                                     ----
             STORAGE =           0.0000               STORAGE =           0.0000
       CONSTANT HEAD =           0.0000         CONSTANT HEAD =           0.0000
               WELLS =           0.0000                 WELLS =           0.0000
     HEAD DEP BOUNDS =      311441.0000       HEAD DEP BOUNDS =        1302.9698

           TOTAL OUT =      311441.0000             TOTAL OUT =        1302.9698

            IN - OUT =           0.1250              IN - OUT =      -3.3447E-02

 PERCENT DISCREPANCY =           0.00     PERCENT DISCREPANCY =          -0.00






         TIME SUMMARY AT END OF TIME STEP   99 IN STRESS PERIOD    2
                    SECONDS     MINUTES      HOURS       DAYS        YEARS
                    -----------------------------------------------------------
   TIME STEP LENGTH  86400.      1440.0      24.000      1.0000     2.73785E-03
 STRESS PERIOD TIME 8.55360E+06 1.42560E+05  2376.0      99.000     0.27105    
         TOTAL TIME 8.64000E+06 1.44000E+05  2400.0      100.00     0.27379    
1
 
 SOLVING FOR HEAD 

 OUTPUT CONTROL FOR STRESS PERIOD    2   TIME STEP  100
    SAVE HEAD FOR ALL LAYERS
    SAVE DRAWDOWN FOR ALL LAYERS
    SAVE BUDGET
    PRINT HEAD FOR ALL LAYERS
    PRINT BUDGET
 UBDSV1 SAVING "         STORAGE" ON UNIT  53 AT TIME STEP100, STRESS PERIOD   2
 UBDSV2 SAVING "   CONSTANT HEAD" ON UNIT  53 AT TIME STEP100, STRESS PERIOD   2
 UBDSV1 SAVING "FLOW RIGHT FACE " ON UNIT  53 AT TIME STEP100, STRESS PERIOD   2
 UBDSV1 SAVING "FLOW FRONT FACE " ON UNIT  53 AT TIME STEP100, STRESS PERIOD   2
1
              HEAD IN LAYER   1 AT END OF TIME STEP 100 IN STRESS PERIOD    2
  ---------------------------------------------------------------------------

            1           2           3           4           5           6           7           8           9          10
 ........................................................................................................................
   1    9.998       9.841       9.618       9.258       8.674       7.778       6.483       4.739       2.553      2.5931E-02
   2    9.998       9.841       9.618       9.258       8.674       7.778       6.483       4.739       2.553      2.5931E-02
   3    9.998       9.841       9.618       9.258       8.674       7.778       6.483       4.739       2.553      2.5931E-02
   4    9.998       9.841       9.618       9.258       8.674       7.778       6.483       4.739       2.553      2.5931E-02
   5    9.998       9.841       9.618       9.258       8.674       7.778       6.483       4.739       2.553      2.5931E-02
   6    9.998       9.841       9.618       9.258       8.674       7.778       6.483       4.739       2.553      2.5931E-02
   7    9.998       9.841       9.618       9.258       8.674       7.778       6.483       4.739       2.553      2.5931E-02
   8    9.998       9.841       9.618       9.258       8.674       7.778       6.483       4.739       2.553      2.5931E-02
   9    9.998       9.841       9.618       9.258       8.674       7.778       6.483       4.739       2.553      2.5931E-02
  10    9.998       9.841       9.618       9.258       8.674       7.778       6.483       4.739       2.553      2.5931E-02

 HEAD WILL BE SAVED ON UNIT   51 AT END OF TIME STEP  100, STRESS PERIOD    2

 DRAWDOWN WILL BE SAVED ON UNIT   52 AT END OF TIME STEP  100, STRESS PERIOD    2
1
  VOLUMETRIC BUDGET FOR ENTIRE MODEL AT END OF TIME STEP  100, STRESS PERIOD   2
  ------------------------------------------------------------------------------

     CUMULATIVE VOLUMES      L**3       RATES FOR THIS TIME STEP      L**3/T
     ------------------                 ------------------------

           IN:                                      IN:
           ---                                      ---
             STORAGE =      310319.8750               STORAGE =        1202.7079
       CONSTANT HEAD =           0.0000         CONSTANT HEAD =           0.0000
               WELLS =           0.0000                 WELLS =           0.0000
     HEAD DEP BOUNDS =        2417.7859       HEAD DEP BOUNDS =          93.8196

            TOTAL IN =      312737.6562              TOTAL IN =        1296.5275

          OUT:                                     OUT:
          ----                                     ----
             STORAGE =           0.0000               STORAGE =           0.0000
       CONSTANT HEAD =           0.0000         CONSTANT HEAD =           0.0000
               WELLS =           0.0000                 WELLS =           0.0000
     HEAD DEP BOUNDS =      312737.5625       HEAD DEP BOUNDS =        1296.5535

           TOTAL OUT =      312737.5625             TOTAL OUT =        1296.5535

            IN - OUT =       9.3750E-02              IN - OUT =      -2.6001E-02

 PERCENT DISCREPANCY =           0.00     PERCENT DISCREPANCY =          -0.00






         TIME SUMMARY AT END OF TIME STEP  100 IN STRESS PERIOD    2
                    SECONDS     MINUTES      HOURS       DAYS        YEARS
                    -----------------------------------------------------------
   TIME STEP LENGTH  86400.      1440.0      24.000      1.0000     2.73785E-03
 STRESS PERIOD TIME 8.64000E+06 1.44000E+05  2400.0      100.00     0.27379    
         TOTAL TIME 8.72640E+06 1.45440E+05  2424.0      101.00     0.27652    
1
1
                            STRESS PERIOD NO.    3, LENGTH =   100.0000    
                            -----------------------------------------------

                              NUMBER OF TIME STEPS =   100

                               MULTIPLIER FOR DELT =     1.000

                            INITIAL TIME STEP SIZE =   1.000000    

 WELL NO.  LAYER   ROW   COL   STRESS RATE         
 --------------------------------------------------
      1      1      5      5      -100.0    

      1 WELL 

 REUSING NON-PARAMETER GHB CELLS FROM LAST STRESS PERIOD

     20 GHB CELLS
 
 SOLVING FOR HEAD 

 OUTPUT CONTROL FOR STRESS PERIOD    3   TIME STEP    1
    SAVE HEAD FOR ALL LAYERS
    SAVE DRAWDOWN FOR ALL LAYERS
    SAVE BUDGET
    PRINT HEAD FOR ALL LAYERS
    PRINT BUDGET
 UBDSV1 SAVING "         STORAGE" ON UNIT  53 AT TIME STEP  1, STRESS PERIOD   3
 UBDSV2 SAVING "   CONSTANT HEAD" ON UNIT  53 AT TIME STEP  1, STRESS PERIOD   3
 UBDSV1 SAVING "FLOW RIGHT FACE " ON UNIT  53 AT TIME STEP  1, STRESS PERIOD   3
 UBDSV1 SAVING "FLOW FRONT FACE " ON UNIT  53 AT TIME STEP  1, STRESS PERIOD   3
1
              HEAD IN LAYER   1 AT END OF TIME STEP   1 IN STRESS PERIOD    3
  ---------------------------------------------------------------------------

            1           2           3           4           5           6           7           8           9          10
 ........................................................................................................................
   1    9.998       9.837       9.610       9.245       8.657       7.756       6.460       4.719       2.541      2.5805E-02
   2    9.998       9.837       9.610       9.245       8.657       7.756       6.460       4.719       2.541      2.5805E-02
   3    9.998       9.837       9.610       9.245       8.656       7.756       6.460       4.719       2.541      2.5805E-02
   4    9.998       9.837       9.610       9.244       8.653       7.756       6.460       4.719       2.541      2.5805E-02
   5    9.998       9.837       9.610       9.241       8.575       7.752       6.460       4.719       2.541      2.5805E-02
   6    9.998       9.837       9.610       9.244       8.653       7.756       6.460       4.719       2.541      2.5805E-02
   7    9.998       9.837       9.610       9.245       8.656       7.756       6.460       4.719       2.541      2.5805E-02
   8    9.998       9.837       9.610       9.245       8.657       7.756       6.460       4.719       2.541      2.5805E-02
   9    9.998       9.837       9.610       9.245       8.657       7.756       6.460       4.719       2.541      2.5805E-02
  10    9.998       9.837       9.610       9.245       8.657       7.756       6.460       4.719       2.541      2.5805E-02

 HEAD WILL BE SAVED ON UNIT   51 AT END OF TIME STEP    1, STRESS PERIOD    3

 DRAWDOWN WILL BE SAVED ON UNIT   52 AT END OF TIME STEP    1, STRESS PERIOD    3
1
  VOLUMETRIC BUDGET FOR ENTIRE MODEL AT END OF TIME STEP    1, STRESS PERIOD   3
  ------------------------------------------------------------------------------

     CUMULATIVE VOLUMES      L**3       RATES FOR THIS TIME STEP      L**3/T
     ------------------                 ------------------------

           IN:                                      IN:
           ---                                      ---
             STORAGE =      311613.9375               STORAGE =        1294.0780
       CONSTANT HEAD =           0.0000         CONSTANT HEAD =           0.0000
               WELLS =           0.0000                 WELLS =           0.0000
     HEAD DEP BOUNDS =        2513.9236       HEAD DEP BOUNDS =          96.1377

            TOTAL IN =      314127.8750              TOTAL IN =        1390.2157

          OUT:                                     OUT:
          ----                                     ----
             STORAGE =           0.0000               STORAGE =           0.0000
       CONSTANT HEAD =           0.0000         CONSTANT HEAD =           0.0000
               WELLS =         100.0000                 WELLS =         100.0000
     HEAD DEP BOUNDS =      314027.7812       HEAD DEP BOUNDS =        1290.2313

           TOTAL OUT =      314127.7812             TOTAL OUT =        1390.2313

            IN - OUT =       9.3750E-02              IN - OUT =      -1.5625E-02

 PERCENT DISCREPANCY =           0.00     PERCENT DISCREPANCY =          -0.00






         TIME SUMMARY AT END OF TIME STEP    1 IN STRESS PERIOD    3
                    SECONDS     MINUTES      HOURS       DAYS        YEARS
                    -----------------------------------------------------------
   TIME STEP LENGTH  86400.      1440.0      24.000      1.0000     2.73785E-03
 STRESS PERIOD TIME  86400.      1440.0      24.000      1.0000     2.73785E-03
         TOTAL TIME 8.81280E+06 1.46880E+05  2448.0      102.00     0.27926    
1
 
 SOLVING FOR HEAD 

 OUTPUT CONTROL FOR STRESS PERIOD    3   TIME STEP    2
    SAVE HEAD FOR ALL LAYERS
    SAVE DRAWDOWN FOR ALL LAYERS
    SAVE BUDGET
    PRINT HEAD FOR ALL LAYERS
    PRINT BUDGET
 UBDSV1 SAVING "         STORAGE" ON UNIT  53 AT TIME STEP  2, STRESS PERIOD   3
 UBDSV2 SAVING "   CONSTANT HEAD" ON UNIT  53 AT TIME STEP  2, STRESS PERIOD   3
 UBDSV1 SAVING "FLOW RIGHT FACE " ON UNIT  53 AT TIME STEP  2, STRESS PERIOD   3
 UBDSV1 SAVING "FLOW FRONT FACE " ON UNIT  53 AT TIME STEP  2, STRESS PERIOD   3
1
              HEAD IN LAYER   1 AT END OF TIME STEP   2 IN STRESS PERIOD    3
  ---------------------------------------------------------------------------

            1           2           3           4           5           6           7           8           9          10
 ........................................................................................................................
   1    9.998       9.833       9.602       9.232       8.639       7.735       6.438       4.699       2.529      2.5680E-02
   2    9.998       9.833       9.602       9.232       8.639       7.735       6.438       4.699       2.529      2.5680E-02
   3    9.998       9.833       9.602       9.232       8.638       7.734       6.438       4.699       2.529      2.5680E-02
   4    9.998       9.833       9.602       9.230       8.628       7.733       6.438       4.699       2.529      2.5680E-02
   5    9.998       9.833       9.601       9.221       8.490       7.724       6.437       4.699       2.529      2.5680E-02
   6    9.998       9.833       9.602       9.230       8.628       7.733       6.438       4.699       2.529      2.5680E-02
   7    9.998       9.833       9.602       9.232       8.638       7.734       6.438       4.699       2.529      2.5680E-02
   8    9.998       9.833       9.602       9.232       8.639       7.735       6.438       4.699       2.529      2.5680E-02
   9    9.998       9.833       9.602       9.232       8.639       7.735       6.438       4.699       2.529      2.5680E-02
  10    9.998       9.833       9.602       9.232       8.639       7.735       6.438       4.699       2.529      2.5680E-02

 HEAD WILL BE SAVED ON UNIT   51 AT END OF TIME STEP    2, STRESS PERIOD    3

 DRAWDOWN WILL BE SAVED ON UNIT   52 AT END OF TIME STEP    2, STRESS PERIOD    3
1
  VOLUMETRIC BUDGET FOR ENTIRE MODEL AT END OF TIME STEP    2, STRESS PERIOD   3
  ------------------------------------------------------------------------------

     CUMULATIVE VOLUMES      L**3       RATES FOR THIS TIME STEP      L**3/T
     ------------------                 ------------------------

           IN:                                      IN:
           ---                                      ---
             STORAGE =      312899.4688               STORAGE =        1285.5271
       CONSTANT HEAD =           0.0000         CONSTANT HEAD =           0.0000
               WELLS =           0.0000                 WELLS =           0.0000
     HEAD DEP BOUNDS =        2612.3916       HEAD DEP BOUNDS =          98.4681

            TOTAL IN =      315511.8750              TOTAL IN =        1383.9952

          OUT:                                     OUT:
          ----                                     ----
             STORAGE =           0.0000               STORAGE =           0.0000
       CONSTANT HEAD =           0.0000         CONSTANT HEAD =           0.0000
               WELLS =         200.0000                 WELLS =         100.0000
     HEAD DEP BOUNDS =      315311.7812       HEAD DEP BOUNDS =        1283.9933

           TOTAL OUT =      315511.7812             TOTAL OUT =        1383.9933

            IN - OUT =       9.3750E-02              IN - OUT =       1.9531E-03

 PERCENT DISCREPANCY =           0.00     PERCENT DISCREPANCY =           0.00






         TIME SUMMARY AT END OF TIME STEP    2 IN STRESS PERIOD    3
                    SECONDS     MINUTES      HOURS       DAYS        YEARS
                    -----------------------------------------------------------
   TIME STEP LENGTH  86400.      1440.0      24.000      1.0000     2.73785E-03
 STRESS PERIOD TIME 1.72800E+05  2880.0      48.000      2.0000     5.47570E-03
         TOTAL TIME 8.89920E+06 1.48320E+05  2472.0      103.00     0.28200    
1
 
 SOLVING FOR HEAD 

 OUTPUT CONTROL FOR STRESS PERIOD    3   TIME STEP    3
    SAVE HEAD FOR ALL LAYERS
    SAVE DRAWDOWN FOR ALL LAYERS
    SAVE BUDGET
    PRINT HEAD FOR ALL LAYERS
    PRINT BUDGET
 UBDSV1 SAVING "         STORAGE" ON UNIT  53 AT TIME STEP  3, STRESS PERIOD   3
 UBDSV2 SAVING "   CONSTANT HEAD" ON UNIT  53 AT TIME STEP  3, STRESS PERIOD   3
 UBDSV1 SAVING "FLOW RIGHT FACE " ON UNIT  53 AT TIME STEP  3, STRESS PERIOD   3
 UBDSV1 SAVING "FLOW FRONT FACE " ON UNIT  53 AT TIME STEP  3, STRESS PERIOD   3
1
              HEAD IN LAYER   1 AT END OF TIME STEP   3 IN STRESS PERIOD    3
  ---------------------------------------------------------------------------

            1           2           3           4           5           6           7           8           9          10
 ........................................................................................................................
   1    9.998       9.829       9.594       9.219       8.621       7.713       6.415       4.679       2.517      2.5557E-02
   2    9.998       9.829       9.594       9.219       8.621       7.713       6.415       4.679       2.517      2.5557E-02
   3    9.998       9.829       9.594       9.218       8.620       7.713       6.415       4.679       2.517      2.5557E-02
   4    9.998       9.829       9.594       9.216       8.603       7.710       6.415       4.679       2.517      2.5557E-02
   5    9.998       9.829       9.592       9.200       8.416       7.695       6.414       4.679       2.517      2.5557E-02
   6    9.998       9.829       9.594       9.216       8.603       7.710       6.415       4.679       2.517      2.5557E-02
   7    9.998       9.829       9.594       9.218       8.620       7.713       6.415       4.679       2.517      2.5557E-02
   8    9.998       9.829       9.594       9.219       8.621       7.713       6.415       4.679       2.517      2.5557E-02
   9    9.998       9.829       9.594       9.219       8.621       7.713       6.415       4.679       2.517      2.5557E-02
  10    9.998       9.829       9.594       9.219       8.621       7.713       6.415       4.679       2.517      2.5557E-02

 HEAD WILL BE SAVED ON UNIT   51 AT END OF TIME STEP    3, STRESS PERIOD    3

 DRAWDOWN WILL BE SAVED ON UNIT   52 AT END OF TIME STEP    3, STRESS PERIOD    3
1
  VOLUMETRIC BUDGET FOR ENTIRE MODEL AT END OF TIME STEP    3, STRESS PERIOD   3
  ------------------------------------------------------------------------------

     CUMULATIVE VOLUMES      L**3       RATES FOR THIS TIME STEP      L**3/T
     ------------------                 ------------------------

           IN:                                      IN:
           ---                                      ---
             STORAGE =      314176.5000               STORAGE =        1277.0303
       CONSTANT HEAD =           0.0000         CONSTANT HEAD =           0.0000
               WELLS =           0.0000                 WELLS =           0.0000
     HEAD DEP BOUNDS =        2713.2034       HEAD DEP BOUNDS =         100.8118

            TOTAL IN =      316889.7188              TOTAL IN =        1377.8420

          OUT:                                     OUT:
          ----                                     ----
             STORAGE =           0.0000               STORAGE =           0.0000
       CONSTANT HEAD =           0.0000         CONSTANT HEAD =           0.0000
               WELLS =         300.0000                 WELLS =         100.0000
     HEAD DEP BOUNDS =      316589.6250       HEAD DEP BOUNDS =        1277.8455

           TOTAL OUT =      316889.6250             TOTAL OUT =        1377.8455

            IN - OUT =       9.3750E-02              IN - OUT =      -3.4180E-03

 PERCENT DISCREPANCY =           0.00     PERCENT DISCREPANCY =          -0.00






         TIME SUMMARY AT END OF TIME STEP    3 IN STRESS PERIOD    3
                    SECONDS     MINUTES      HOURS       DAYS        YEARS
                    -----------------------------------------------------------
   TIME STEP LENGTH  86400.      1440.0      24.000      1.0000     2.73785E-03
 STRESS PERIOD TIME 2.59200E+05  4320.0      72.000      3.0000     8.21355E-03
         TOTAL TIME 8.98560E+06 1.49760E+05  2496.0      104.00     0.28474    
1
 
 SOLVING FOR HEAD 

 OUTPUT CONTROL FOR STRESS PERIOD    3   TIME STEP    4
    SAVE HEAD FOR ALL LAYERS
    SAVE DRAWDOWN FOR ALL LAYERS
    SAVE BUDGET
    PRINT HEAD FOR ALL LAYERS
    PRINT BUDGET
 UBDSV1 SAVING "         STORAGE" ON UNIT  53 AT TIME STEP  4, STRESS PERIOD   3
 UBDSV2 SAVING "   CONSTANT HEAD" ON UNIT  53 AT TIME STEP  4, STRESS PERIOD   3
 UBDSV1 SAVING "FLOW RIGHT FACE " ON UNIT  53 AT TIME STEP  4, STRESS PERIOD   3
 UBDSV1 SAVING "FLOW FRONT FACE " ON UNIT  53 AT TIME STEP  4, STRESS PERIOD   3
1
              HEAD IN LAYER   1 AT END OF TIME STEP   4 IN STRESS PERIOD    3
  ---------------------------------------------------------------------------

            1           2           3           4           5           6           7           8           9          10
 ........................................................................................................................
   1    9.998       9.825       9.586       9.206       8.604       7.692       6.393       4.660       2.505      2.5436E-02
   2    9.998       9.825       9.586       9.206       8.604       7.692       6.393       4.660       2.505      2.5436E-02
   3    9.998       9.825       9.586       9.205       8.601       7.692       6.393       4.660       2.505      2.5436E-02
   4    9.998       9.825       9.585       9.201       8.576       7.687       6.393       4.660       2.505      2.5436E-02
   5    9.998       9.825       9.583       9.178       8.351       7.665       6.391       4.660       2.505      2.5436E-02
   6    9.998       9.825       9.585       9.201       8.576       7.687       6.393       4.660       2.505      2.5436E-02
   7    9.998       9.825       9.586       9.205       8.601       7.692       6.393       4.660       2.505      2.5436E-02
   8    9.998       9.825       9.586       9.206       8.604       7.692       6.393       4.660       2.505      2.5436E-02
   9    9.998       9.825       9.586       9.206       8.604       7.692       6.393       4.660       2.505      2.5436E-02
  10    9.998       9.825       9.586       9.206       8.604       7.692       6.393       4.660       2.505      2.5436E-02

 HEAD WILL BE SAVED ON UNIT   51 AT END OF TIME STEP    4, STRESS PERIOD    3

 DRAWDOWN WILL BE SAVED ON UNIT   52 AT END OF TIME STEP    4, STRESS PERIOD    3
1
  VOLUMETRIC BUDGET FOR ENTIRE MODEL AT END OF TIME STEP    4, STRESS PERIOD   3
  ------------------------------------------------------------------------------

     CUMULATIVE VOLUMES      L**3       RATES FOR THIS TIME STEP      L**3/T
     ------------------                 ------------------------

           IN:                                      IN:
           ---                                      ---
             STORAGE =      315445.1250               STORAGE =        1268.6134
       CONSTANT HEAD =           0.0000         CONSTANT HEAD =           0.0000
               WELLS =           0.0000                 WELLS =           0.0000
     HEAD DEP BOUNDS =        2816.3726       HEAD DEP BOUNDS =         103.1692

            TOTAL IN =      318261.5000              TOTAL IN =        1371.7826

          OUT:                                     OUT:
          ----                                     ----
             STORAGE =           0.0000               STORAGE =           0.0000
       CONSTANT HEAD =           0.0000         CONSTANT HEAD =           0.0000
               WELLS =         400.0000                 WELLS =         100.0000
     HEAD DEP BOUNDS =      317861.4062       HEAD DEP BOUNDS =        1271.7863

           TOTAL OUT =      318261.4062             TOTAL OUT =        1371.7863

            IN - OUT =       9.3750E-02              IN - OUT =      -3.6621E-03

 PERCENT DISCREPANCY =           0.00     PERCENT DISCREPANCY =          -0.00






         TIME SUMMARY AT END OF TIME STEP    4 IN STRESS PERIOD    3
                    SECONDS     MINUTES      HOURS       DAYS        YEARS
                    -----------------------------------------------------------
   TIME STEP LENGTH  86400.      1440.0      24.000      1.0000     2.73785E-03
 STRESS PERIOD TIME 3.45600E+05  5760.0      96.000      4.0000     1.09514E-02
         TOTAL TIME 9.07200E+06 1.51200E+05  2520.0      105.00     0.28747    
1
 
 SOLVING FOR HEAD 

 OUTPUT CONTROL FOR STRESS PERIOD    3   TIME STEP    5
    SAVE HEAD FOR ALL LAYERS
    SAVE DRAWDOWN FOR ALL LAYERS
    SAVE BUDGET
    PRINT HEAD FOR ALL LAYERS
    PRINT BUDGET
 UBDSV1 SAVING "         STORAGE" ON UNIT  53 AT TIME STEP  5, STRESS PERIOD   3
 UBDSV2 SAVING "   CONSTANT HEAD" ON UNIT  53 AT TIME STEP  5, STRESS PERIOD   3
 UBDSV1 SAVING "FLOW RIGHT FACE " ON UNIT  53 AT TIME STEP  5, STRESS PERIOD   3
 UBDSV1 SAVING "FLOW FRONT FACE " ON UNIT  53 AT TIME STEP  5, STRESS PERIOD   3
1
              HEAD IN LAYER   1 AT END OF TIME STEP   5 IN STRESS PERIOD    3
  ---------------------------------------------------------------------------

            1           2           3           4           5           6           7           8           9          10
 ........................................................................................................................
   1    9.998       9.821       9.577       9.193       8.586       7.671       6.371       4.641       2.494      2.5316E-02
   2    9.998       9.821       9.577       9.193       8.586       7.671       6.371       4.641       2.494      2.5316E-02
   3    9.998       9.821       9.577       9.192       8.582       7.670       6.371       4.641       2.494      2.5316E-02
   4    9.998       9.821       9.576       9.185       8.549       7.664       6.370       4.641       2.494      2.5316E-02
   5    9.998       9.821       9.573       9.156       8.293       7.634       6.367       4.641       2.494      2.5316E-02
   6    9.998       9.821       9.576       9.185       8.549       7.664       6.370       4.641       2.494      2.5316E-02
   7    9.998       9.821       9.577       9.192       8.582       7.670       6.371       4.641       2.494      2.5316E-02
   8    9.998       9.821       9.577       9.193       8.586       7.671       6.371       4.641       2.494      2.5316E-02
   9    9.998       9.821       9.577       9.193       8.586       7.671       6.371       4.641       2.494      2.5316E-02
  10    9.998       9.821       9.577       9.193       8.586       7.671       6.371       4.641       2.494      2.5316E-02

 HEAD WILL BE SAVED ON UNIT   51 AT END OF TIME STEP    5, STRESS PERIOD    3

 DRAWDOWN WILL BE SAVED ON UNIT   52 AT END OF TIME STEP    5, STRESS PERIOD    3
1
  VOLUMETRIC BUDGET FOR ENTIRE MODEL AT END OF TIME STEP    5, STRESS PERIOD   3
  ------------------------------------------------------------------------------

     CUMULATIVE VOLUMES      L**3       RATES FOR THIS TIME STEP      L**3/T
     ------------------                 ------------------------

           IN:                                      IN:
           ---                                      ---
             STORAGE =      316705.3750               STORAGE =        1260.2609
       CONSTANT HEAD =           0.0000         CONSTANT HEAD =           0.0000
               WELLS =           0.0000                 WELLS =           0.0000
     HEAD DEP BOUNDS =        2921.9138       HEAD DEP BOUNDS =         105.5412

            TOTAL IN =      319627.2812              TOTAL IN =        1365.8020

          OUT:                                     OUT:
          ----                                     ----
             STORAGE =           0.0000               STORAGE =           0.0000
       CONSTANT HEAD =           0.0000         CONSTANT HEAD =           0.0000
               WELLS =         500.0000                 WELLS =         100.0000
     HEAD DEP BOUNDS =      319127.2188       HEAD DEP BOUNDS =        1265.8134

           TOTAL OUT =      319627.2188             TOTAL OUT =        1365.8134

            IN - OUT =       6.2500E-02              IN - OUT =      -1.1353E-02

 PERCENT DISCREPANCY =           0.00     PERCENT DISCREPANCY =          -0.00






         TIME SUMMARY AT END OF TIME STEP    5 IN STRESS PERIOD    3
                    SECONDS     MINUTES      HOURS       DAYS        YEARS
                    -----------------------------------------------------------
   TIME STEP LENGTH  86400.      1440.0      24.000      1.0000     2.73785E-03
 STRESS PERIOD TIME 4.32000E+05  7200.0      120.00      5.0000     1.36893E-02
         TOTAL TIME 9.15840E+06 1.52640E+05  2544.0      106.00     0.29021    
1
 
 SOLVING FOR HEAD 

 OUTPUT CONTROL FOR STRESS PERIOD    3   TIME STEP    6
    SAVE HEAD FOR ALL LAYERS
    SAVE DRAWDOWN FOR ALL LAYERS
    SAVE BUDGET
    PRINT HEAD FOR ALL LAYERS
    PRINT BUDGET
 UBDSV1 SAVING "         STORAGE" ON UNIT  53 AT TIME STEP  6, STRESS PERIOD   3
 UBDSV2 SAVING "   CONSTANT HEAD" ON UNIT  53 AT TIME STEP  6, STRESS PERIOD   3
 UBDSV1 SAVING "FLOW RIGHT FACE " ON UNIT  53 AT TIME STEP  6, STRESS PERIOD   3
 UBDSV1 SAVING "FLOW FRONT FACE " ON UNIT  53 AT TIME STEP  6, STRESS PERIOD   3
1
              HEAD IN LAYER   1 AT END OF TIME STEP   6 IN STRESS PERIOD    3
  ---------------------------------------------------------------------------

            1           2           3           4           5           6           7           8           9          10
 ........................................................................................................................
   1    9.998       9.817       9.569       9.180       8.569       7.650       6.350       4.623       2.483      2.5199E-02
   2    9.998       9.817       9.569       9.180       8.568       7.650       6.350       4.623       2.483      2.5199E-02
   3    9.998       9.817       9.569       9.178       8.563       7.649       6.349       4.622       2.483      2.5199E-02
   4    9.998       9.817       9.567       9.169       8.522       7.640       6.348       4.622       2.483      2.5198E-02
   5    9.998       9.817       9.563       9.133       8.241       7.603       6.344       4.622       2.482      2.5198E-02
   6    9.998       9.817       9.567       9.169       8.522       7.640       6.348       4.622       2.483      2.5198E-02
   7    9.998       9.817       9.569       9.178       8.563       7.649       6.349       4.622       2.483      2.5199E-02
   8    9.998       9.817       9.569       9.180       8.568       7.650       6.350       4.623       2.483      2.5199E-02
   9    9.998       9.817       9.569       9.180       8.569       7.650       6.350       4.623       2.483      2.5199E-02
  10    9.998       9.817       9.569       9.180       8.569       7.651       6.350       4.623       2.483      2.5199E-02

 HEAD WILL BE SAVED ON UNIT   51 AT END OF TIME STEP    6, STRESS PERIOD    3

 DRAWDOWN WILL BE SAVED ON UNIT   52 AT END OF TIME STEP    6, STRESS PERIOD    3
1
  VOLUMETRIC BUDGET FOR ENTIRE MODEL AT END OF TIME STEP    6, STRESS PERIOD   3
  ------------------------------------------------------------------------------

     CUMULATIVE VOLUMES      L**3       RATES FOR THIS TIME STEP      L**3/T
     ------------------                 ------------------------

           IN:                                      IN:
           ---                                      ---
             STORAGE =      317957.3438               STORAGE =        1251.9753
       CONSTANT HEAD =           0.0000         CONSTANT HEAD =           0.0000
               WELLS =           0.0000                 WELLS =           0.0000
     HEAD DEP BOUNDS =        3029.8489       HEAD DEP BOUNDS =         107.9350

            TOTAL IN =      320987.1875              TOTAL IN =        1359.9103

          OUT:                                     OUT:
          ----                                     ----
             STORAGE =           0.0000               STORAGE =           0.0000
       CONSTANT HEAD =           0.0000         CONSTANT HEAD =           0.0000
               WELLS =         600.0000                 WELLS =         100.0000
     HEAD DEP BOUNDS =      320387.1562       HEAD DEP BOUNDS =        1259.9250

           TOTAL OUT =      320987.1562             TOTAL OUT =        1359.9250

            IN - OUT =       3.1250E-02              IN - OUT =      -1.4771E-02

 PERCENT DISCREPANCY =           0.00     PERCENT DISCREPANCY =          -0.00






         TIME SUMMARY AT END OF TIME STEP    6 IN STRESS PERIOD    3
                    SECONDS     MINUTES      HOURS       DAYS        YEARS
                    -----------------------------------------------------------
   TIME STEP LENGTH  86400.      1440.0      24.000      1.0000     2.73785E-03
 STRESS PERIOD TIME 5.18400E+05  8640.0      144.00      6.0000     1.64271E-02
         TOTAL TIME 9.24480E+06 1.54080E+05  2568.0      107.00     0.29295    
1
 
 SOLVING FOR HEAD 

 OUTPUT CONTROL FOR STRESS PERIOD    3   TIME STEP    7
    SAVE HEAD FOR ALL LAYERS
    SAVE DRAWDOWN FOR ALL LAYERS
    SAVE BUDGET
    PRINT HEAD FOR ALL LAYERS
    PRINT BUDGET
 UBDSV1 SAVING "         STORAGE" ON UNIT  53 AT TIME STEP  7, STRESS PERIOD   3
 UBDSV2 SAVING "   CONSTANT HEAD" ON UNIT  53 AT TIME STEP  7, STRESS PERIOD   3
 UBDSV1 SAVING "FLOW RIGHT FACE " ON UNIT  53 AT TIME STEP  7, STRESS PERIOD   3
 UBDSV1 SAVING "FLOW FRONT FACE " ON UNIT  53 AT TIME STEP  7, STRESS PERIOD   3
1
              HEAD IN LAYER   1 AT END OF TIME STEP   7 IN STRESS PERIOD    3
  ---------------------------------------------------------------------------

            1           2           3           4           5           6           7           8           9          10
 ........................................................................................................................
   1    9.998       9.813       9.561       9.167       8.552       7.630       6.328       4.604       2.471      2.5083E-02
   2    9.998       9.813       9.561       9.167       8.551       7.630       6.328       4.604       2.471      2.5083E-02
   3    9.998       9.813       9.560       9.165       8.544       7.627       6.328       4.604       2.471      2.5082E-02
   4    9.998       9.813       9.558       9.153       8.495       7.616       6.326       4.604       2.471      2.5082E-02
   5    9.998       9.813       9.553       9.111       8.194       7.573       6.321       4.603       2.471      2.5082E-02
   6    9.998       9.813       9.558       9.153       8.495       7.616       6.326       4.604       2.471      2.5082E-02
   7    9.998       9.813       9.560       9.165       8.544       7.627       6.328       4.604       2.471      2.5082E-02
   8    9.998       9.813       9.561       9.167       8.551       7.630       6.328       4.604       2.471      2.5083E-02
   9    9.998       9.813       9.561       9.167       8.552       7.630       6.328       4.604       2.471      2.5083E-02
  10    9.998       9.813       9.561       9.167       8.552       7.630       6.328       4.604       2.471      2.5083E-02

 HEAD WILL BE SAVED ON UNIT   51 AT END OF TIME STEP    7, STRESS PERIOD    3

 DRAWDOWN WILL BE SAVED ON UNIT   52 AT END OF TIME STEP    7, STRESS PERIOD    3
1
  VOLUMETRIC BUDGET FOR ENTIRE MODEL AT END OF TIME STEP    7, STRESS PERIOD   3
  ------------------------------------------------------------------------------

     CUMULATIVE VOLUMES      L**3       RATES FOR THIS TIME STEP      L**3/T
     ------------------                 ------------------------

           IN:                                      IN:
           ---                                      ---
             STORAGE =      319201.0938               STORAGE =        1243.7599
       CONSTANT HEAD =           0.0000         CONSTANT HEAD =           0.0000
               WELLS =           0.0000                 WELLS =           0.0000
     HEAD DEP BOUNDS =        3140.1870       HEAD DEP BOUNDS =         110.3382

            TOTAL IN =      322341.2812              TOTAL IN =        1354.0980

          OUT:                                     OUT:
          ----                                     ----
             STORAGE =           0.0000               STORAGE =           0.0000
       CONSTANT HEAD =           0.0000         CONSTANT HEAD =           0.0000
               WELLS =         700.0000                 WELLS =         100.0000
     HEAD DEP BOUNDS =      321641.2812       HEAD DEP BOUNDS =        1254.1171

           TOTAL OUT =      322341.2812             TOTAL OUT =        1354.1171

            IN - OUT =           0.0000              IN - OUT =      -1.9043E-02

 PERCENT DISCREPANCY =           0.00     PERCENT DISCREPANCY =          -0.00






         TIME SUMMARY AT END OF TIME STEP    7 IN STRESS PERIOD    3
                    SECONDS     MINUTES      HOURS       DAYS        YEARS
                    -----------------------------------------------------------
   TIME STEP LENGTH  86400.      1440.0      24.000      1.0000     2.73785E-03
 STRESS PERIOD TIME 6.04800E+05  10080.      168.00      7.0000     1.91650E-02
         TOTAL TIME 9.33120E+06 1.55520E+05  2592.0      108.00     0.29569    
1
 
 SOLVING FOR HEAD 

 OUTPUT CONTROL FOR STRESS PERIOD    3   TIME STEP    8
    SAVE HEAD FOR ALL LAYERS
    SAVE DRAWDOWN FOR ALL LAYERS
    SAVE BUDGET
    PRINT HEAD FOR ALL LAYERS
    PRINT BUDGET
 UBDSV1 SAVING "         STORAGE" ON UNIT  53 AT TIME STEP  8, STRESS PERIOD   3
 UBDSV2 SAVING "   CONSTANT HEAD" ON UNIT  53 AT TIME STEP  8, STRESS PERIOD   3
 UBDSV1 SAVING "FLOW RIGHT FACE " ON UNIT  53 AT TIME STEP  8, STRESS PERIOD   3
 UBDSV1 SAVING "FLOW FRONT FACE " ON UNIT  53 AT TIME STEP  8, STRESS PERIOD   3
1
              HEAD IN LAYER   1 AT END OF TIME STEP   8 IN STRESS PERIOD    3
  ---------------------------------------------------------------------------

            1           2           3           4           5           6           7           8           9          10
 ........................................................................................................................
   1    9.998       9.809       9.552       9.154       8.534       7.609       6.307       4.586       2.460      2.4968E-02
   2    9.998       9.809       9.552       9.154       8.533       7.609       6.307       4.586       2.460      2.4968E-02
   3    9.998       9.809       9.552       9.151       8.525       7.606       6.306       4.586       2.460      2.4968E-02
   4    9.998       9.809       9.549       9.136       8.468       7.591       6.304       4.585       2.460      2.4967E-02
   5    9.998       9.808       9.543       9.089       8.151       7.543       6.297       4.585       2.460      2.4967E-02
   6    9.998       9.809       9.549       9.136       8.468       7.591       6.304       4.585       2.460      2.4967E-02
   7    9.998       9.809       9.552       9.151       8.525       7.606       6.306       4.586       2.460      2.4968E-02
   8    9.998       9.809       9.552       9.154       8.533       7.609       6.307       4.586       2.460      2.4968E-02
   9    9.998       9.809       9.553       9.154       8.534       7.609       6.307       4.586       2.460      2.4968E-02
  10    9.998       9.809       9.553       9.154       8.534       7.609       6.307       4.586       2.460      2.4968E-02

 HEAD WILL BE SAVED ON UNIT   51 AT END OF TIME STEP    8, STRESS PERIOD    3

 DRAWDOWN WILL BE SAVED ON UNIT   52 AT END OF TIME STEP    8, STRESS PERIOD    3
1
  VOLUMETRIC BUDGET FOR ENTIRE MODEL AT END OF TIME STEP    8, STRESS PERIOD   3
  ------------------------------------------------------------------------------

     CUMULATIVE VOLUMES      L**3       RATES FOR THIS TIME STEP      L**3/T
     ------------------                 ------------------------

           IN:                                      IN:
           ---                                      ---
             STORAGE =      320436.6875               STORAGE =        1235.6050
       CONSTANT HEAD =           0.0000         CONSTANT HEAD =           0.0000
               WELLS =           0.0000                 WELLS =           0.0000
     HEAD DEP BOUNDS =        3252.9578       HEAD DEP BOUNDS =         112.7708

            TOTAL IN =      323689.6562              TOTAL IN =        1348.3757

          OUT:                                     OUT:
          ----                                     ----
             STORAGE =           0.0000               STORAGE =           0.0000
       CONSTANT HEAD =           0.0000         CONSTANT HEAD =           0.0000
               WELLS =         800.0000                 WELLS =         100.0000
     HEAD DEP BOUNDS =      322889.6562       HEAD DEP BOUNDS =        1248.3846

           TOTAL OUT =      323689.6562             TOTAL OUT =        1348.3846

            IN - OUT =           0.0000              IN - OUT =      -8.9111E-03

 PERCENT DISCREPANCY =           0.00     PERCENT DISCREPANCY =          -0.00






         TIME SUMMARY AT END OF TIME STEP    8 IN STRESS PERIOD    3
                    SECONDS     MINUTES      HOURS       DAYS        YEARS
                    -----------------------------------------------------------
   TIME STEP LENGTH  86400.      1440.0      24.000      1.0000     2.73785E-03
 STRESS PERIOD TIME 6.91200E+05  11520.      192.00      8.0000     2.19028E-02
         TOTAL TIME 9.41760E+06 1.56960E+05  2616.0      109.00     0.29843    
1
 
 SOLVING FOR HEAD 

 OUTPUT CONTROL FOR STRESS PERIOD    3   TIME STEP    9
    SAVE HEAD FOR ALL LAYERS
    SAVE DRAWDOWN FOR ALL LAYERS
    SAVE BUDGET
    PRINT HEAD FOR ALL LAYERS
    PRINT BUDGET
 UBDSV1 SAVING "         STORAGE" ON UNIT  53 AT TIME STEP  9, STRESS PERIOD   3
 UBDSV2 SAVING "   CONSTANT HEAD" ON UNIT  53 AT TIME STEP  9, STRESS PERIOD   3
 UBDSV1 SAVING "FLOW RIGHT FACE " ON UNIT  53 AT TIME STEP  9, STRESS PERIOD   3
 UBDSV1 SAVING "FLOW FRONT FACE " ON UNIT  53 AT TIME STEP  9, STRESS PERIOD   3
1
              HEAD IN LAYER   1 AT END OF TIME STEP   9 IN STRESS PERIOD    3
  ---------------------------------------------------------------------------

            1           2           3           4           5           6           7           8           9          10
 ........................................................................................................................
   1    9.998       9.805       9.544       9.141       8.517       7.589       6.286       4.568       2.449      2.4855E-02
   2    9.998       9.805       9.544       9.141       8.516       7.588       6.286       4.568       2.449      2.4855E-02
   3    9.998       9.805       9.543       9.137       8.505       7.585       6.285       4.567       2.449      2.4855E-02
   4    9.998       9.805       9.540       9.119       8.442       7.567       6.282       4.567       2.449      2.4854E-02
   5    9.998       9.804       9.532       9.066       8.111       7.513       6.274       4.566       2.449      2.4853E-02
   6    9.998       9.805       9.540       9.119       8.442       7.567       6.282       4.567       2.449      2.4854E-02
   7    9.998       9.805       9.543       9.137       8.505       7.585       6.285       4.567       2.449      2.4855E-02
   8    9.998       9.805       9.544       9.141       8.516       7.588       6.286       4.568       2.449      2.4855E-02
   9    9.998       9.805       9.544       9.141       8.517       7.589       6.286       4.568       2.449      2.4855E-02
  10    9.998       9.805       9.544       9.142       8.517       7.589       6.286       4.568       2.449      2.4855E-02

 HEAD WILL BE SAVED ON UNIT   51 AT END OF TIME STEP    9, STRESS PERIOD    3

 DRAWDOWN WILL BE SAVED ON UNIT   52 AT END OF TIME STEP    9, STRESS PERIOD    3
1
  VOLUMETRIC BUDGET FOR ENTIRE MODEL AT END OF TIME STEP    9, STRESS PERIOD   3
  ------------------------------------------------------------------------------

     CUMULATIVE VOLUMES      L**3       RATES FOR THIS TIME STEP      L**3/T
     ------------------                 ------------------------

           IN:                                      IN:
           ---                                      ---
             STORAGE =      321664.1875               STORAGE =        1227.4954
       CONSTANT HEAD =           0.0000         CONSTANT HEAD =           0.0000
               WELLS =           0.0000                 WELLS =           0.0000
     HEAD DEP BOUNDS =        3368.1709       HEAD DEP BOUNDS =         115.2132

            TOTAL IN =      325032.3438              TOTAL IN =        1342.7085

          OUT:                                     OUT:
          ----                                     ----
             STORAGE =           0.0000               STORAGE =           0.0000
       CONSTANT HEAD =           0.0000         CONSTANT HEAD =           0.0000
               WELLS =         900.0000                 WELLS =         100.0000
     HEAD DEP BOUNDS =      324132.3750       HEAD DEP BOUNDS =        1242.7223

           TOTAL OUT =      325032.3750             TOTAL OUT =        1342.7223

            IN - OUT =      -3.1250E-02              IN - OUT =      -1.3794E-02

 PERCENT DISCREPANCY =          -0.00     PERCENT DISCREPANCY =          -0.00






         TIME SUMMARY AT END OF TIME STEP    9 IN STRESS PERIOD    3
                    SECONDS     MINUTES      HOURS       DAYS        YEARS
                    -----------------------------------------------------------
   TIME STEP LENGTH  86400.      1440.0      24.000      1.0000     2.73785E-03
 STRESS PERIOD TIME 7.77600E+05  12960.      216.00      9.0000     2.46407E-02
         TOTAL TIME 9.50400E+06 1.58400E+05  2640.0      110.00     0.30116    
1
 
 SOLVING FOR HEAD 

 OUTPUT CONTROL FOR STRESS PERIOD    3   TIME STEP   10
    SAVE HEAD FOR ALL LAYERS
    SAVE DRAWDOWN FOR ALL LAYERS
    SAVE BUDGET
    PRINT HEAD FOR ALL LAYERS
    PRINT BUDGET
 UBDSV1 SAVING "         STORAGE" ON UNIT  53 AT TIME STEP 10, STRESS PERIOD   3
 UBDSV2 SAVING "   CONSTANT HEAD" ON UNIT  53 AT TIME STEP 10, STRESS PERIOD   3
 UBDSV1 SAVING "FLOW RIGHT FACE " ON UNIT  53 AT TIME STEP 10, STRESS PERIOD   3
 UBDSV1 SAVING "FLOW FRONT FACE " ON UNIT  53 AT TIME STEP 10, STRESS PERIOD   3
1
              HEAD IN LAYER   1 AT END OF TIME STEP  10 IN STRESS PERIOD    3
  ---------------------------------------------------------------------------

            1           2           3           4           5           6           7           8           9          10
 ........................................................................................................................
   1    9.998       9.801       9.536       9.129       8.500       7.569       6.265       4.550       2.439      2.4743E-02
   2    9.998       9.801       9.536       9.128       8.498       7.568       6.265       4.550       2.439      2.4743E-02
   3    9.998       9.801       9.534       9.123       8.486       7.563       6.264       4.550       2.439      2.4743E-02
   4    9.998       9.800       9.530       9.102       8.416       7.542       6.260       4.549       2.439      2.4742E-02
   5    9.998       9.799       9.522       9.045       8.074       7.484       6.251       4.548       2.439      2.4741E-02
   6    9.998       9.800       9.530       9.102       8.416       7.542       6.260       4.549       2.439      2.4742E-02
   7    9.998       9.801       9.534       9.123       8.486       7.563       6.264       4.550       2.439      2.4743E-02
   8    9.998       9.801       9.536       9.128       8.498       7.568       6.265       4.550       2.439      2.4743E-02
   9    9.998       9.801       9.536       9.129       8.500       7.569       6.265       4.550       2.439      2.4743E-02
  10    9.998       9.801       9.536       9.129       8.500       7.569       6.265       4.550       2.439      2.4743E-02

 HEAD WILL BE SAVED ON UNIT   51 AT END OF TIME STEP   10, STRESS PERIOD    3

 DRAWDOWN WILL BE SAVED ON UNIT   52 AT END OF TIME STEP   10, STRESS PERIOD    3
1
  VOLUMETRIC BUDGET FOR ENTIRE MODEL AT END OF TIME STEP   10, STRESS PERIOD   3
  ------------------------------------------------------------------------------

     CUMULATIVE VOLUMES      L**3       RATES FOR THIS TIME STEP      L**3/T
     ------------------                 ------------------------

           IN:                                      IN:
           ---                                      ---
             STORAGE =      322883.6250               STORAGE =        1219.4417
       CONSTANT HEAD =           0.0000         CONSTANT HEAD =           0.0000
               WELLS =           0.0000                 WELLS =           0.0000
     HEAD DEP BOUNDS =        3485.8499       HEAD DEP BOUNDS =         117.6789

            TOTAL IN =      326369.4688              TOTAL IN =        1337.1206

          OUT:                                     OUT:
          ----                                     ----
             STORAGE =           0.0000               STORAGE =           0.0000
       CONSTANT HEAD =           0.0000         CONSTANT HEAD =           0.0000
               WELLS =        1000.0000                 WELLS =         100.0000
     HEAD DEP BOUNDS =      325369.5000       HEAD DEP BOUNDS =        1237.1383

           TOTAL OUT =      326369.5000             TOTAL OUT =        1337.1383

            IN - OUT =      -3.1250E-02              IN - OUT =      -1.7700E-02

 PERCENT DISCREPANCY =          -0.00     PERCENT DISCREPANCY =          -0.00






         TIME SUMMARY AT END OF TIME STEP   10 IN STRESS PERIOD    3
                    SECONDS     MINUTES      HOURS       DAYS        YEARS
                    -----------------------------------------------------------
   TIME STEP LENGTH  86400.      1440.0      24.000      1.0000     2.73785E-03
 STRESS PERIOD TIME 8.64000E+05  14400.      240.00      10.000     2.73785E-02
         TOTAL TIME 9.59040E+06 1.59840E+05  2664.0      111.00     0.30390    
1
 
 SOLVING FOR HEAD 

 OUTPUT CONTROL FOR STRESS PERIOD    3   TIME STEP   11
    SAVE HEAD FOR ALL LAYERS
    SAVE DRAWDOWN FOR ALL LAYERS
    SAVE BUDGET
    PRINT HEAD FOR ALL LAYERS
    PRINT BUDGET
 UBDSV1 SAVING "         STORAGE" ON UNIT  53 AT TIME STEP 11, STRESS PERIOD   3
 UBDSV2 SAVING "   CONSTANT HEAD" ON UNIT  53 AT TIME STEP 11, STRESS PERIOD   3
 UBDSV1 SAVING "FLOW RIGHT FACE " ON UNIT  53 AT TIME STEP 11, STRESS PERIOD   3
 UBDSV1 SAVING "FLOW FRONT FACE " ON UNIT  53 AT TIME STEP 11, STRESS PERIOD   3
1
              HEAD IN LAYER   1 AT END OF TIME STEP  11 IN STRESS PERIOD    3
  ---------------------------------------------------------------------------

            1           2           3           4           5           6           7           8           9          10
 ........................................................................................................................
   1    9.998       9.797       9.527       9.116       8.483       7.549       6.244       4.532       2.428      2.4633E-02
   2    9.998       9.797       9.527       9.115       8.481       7.548       6.244       4.532       2.428      2.4633E-02
   3    9.998       9.797       9.526       9.109       8.466       7.542       6.243       4.532       2.428      2.4633E-02
   4    9.998       9.796       9.521       9.085       8.390       7.518       6.238       4.531       2.428      2.4632E-02
   5    9.998       9.795       9.511       9.023       8.038       7.455       6.228       4.530       2.428      2.4630E-02
   6    9.998       9.796       9.521       9.085       8.390       7.518       6.238       4.531       2.428      2.4632E-02
   7    9.998       9.797       9.526       9.109       8.466       7.542       6.243       4.532       2.428      2.4633E-02
   8    9.998       9.797       9.527       9.115       8.481       7.548       6.244       4.532       2.428      2.4633E-02
   9    9.998       9.797       9.527       9.116       8.483       7.549       6.244       4.532       2.428      2.4633E-02
  10    9.998       9.797       9.528       9.116       8.483       7.549       6.245       4.532       2.428      2.4633E-02

 HEAD WILL BE SAVED ON UNIT   51 AT END OF TIME STEP   11, STRESS PERIOD    3

 DRAWDOWN WILL BE SAVED ON UNIT   52 AT END OF TIME STEP   11, STRESS PERIOD    3
1
  VOLUMETRIC BUDGET FOR ENTIRE MODEL AT END OF TIME STEP   11, STRESS PERIOD   3
  ------------------------------------------------------------------------------

     CUMULATIVE VOLUMES      L**3       RATES FOR THIS TIME STEP      L**3/T
     ------------------                 ------------------------

           IN:                                      IN:
           ---                                      ---
             STORAGE =      324095.0625               STORAGE =        1211.4434
       CONSTANT HEAD =           0.0000         CONSTANT HEAD =           0.0000
               WELLS =           0.0000                 WELLS =           0.0000
     HEAD DEP BOUNDS =        3606.0176       HEAD DEP BOUNDS =         120.1678

            TOTAL IN =      327701.0938              TOTAL IN =        1331.6112

          OUT:                                     OUT:
          ----                                     ----
             STORAGE =           0.0000               STORAGE =           0.0000
       CONSTANT HEAD =           0.0000         CONSTANT HEAD =           0.0000
               WELLS =        1100.0000                 WELLS =         100.0000
     HEAD DEP BOUNDS =      326601.1250       HEAD DEP BOUNDS =        1231.6302

           TOTAL OUT =      327701.1250             TOTAL OUT =        1331.6302

            IN - OUT =      -3.1250E-02              IN - OUT =      -1.9043E-02

 PERCENT DISCREPANCY =          -0.00     PERCENT DISCREPANCY =          -0.00






         TIME SUMMARY AT END OF TIME STEP   11 IN STRESS PERIOD    3
                    SECONDS     MINUTES      HOURS       DAYS        YEARS
                    -----------------------------------------------------------
   TIME STEP LENGTH  86400.      1440.0      24.000      1.0000     2.73785E-03
 STRESS PERIOD TIME 9.50400E+05  15840.      264.00      11.000     3.01164E-02
         TOTAL TIME 9.67680E+06 1.61280E+05  2688.0      112.00     0.30664    
1
 
 SOLVING FOR HEAD 

 OUTPUT CONTROL FOR STRESS PERIOD    3   TIME STEP   12
    SAVE HEAD FOR ALL LAYERS
    SAVE DRAWDOWN FOR ALL LAYERS
    SAVE BUDGET
    PRINT HEAD FOR ALL LAYERS
    PRINT BUDGET
 UBDSV1 SAVING "         STORAGE" ON UNIT  53 AT TIME STEP 12, STRESS PERIOD   3
 UBDSV2 SAVING "   CONSTANT HEAD" ON UNIT  53 AT TIME STEP 12, STRESS PERIOD   3
 UBDSV1 SAVING "FLOW RIGHT FACE " ON UNIT  53 AT TIME STEP 12, STRESS PERIOD   3
 UBDSV1 SAVING "FLOW FRONT FACE " ON UNIT  53 AT TIME STEP 12, STRESS PERIOD   3
1
              HEAD IN LAYER   1 AT END OF TIME STEP  12 IN STRESS PERIOD    3
  ---------------------------------------------------------------------------

            1           2           3           4           5           6           7           8           9          10
 ........................................................................................................................
   1    9.998       9.793       9.519       9.103       8.466       7.529       6.224       4.515       2.418      2.4525E-02
   2    9.998       9.793       9.519       9.102       8.463       7.527       6.224       4.515       2.418      2.4525E-02
   3    9.998       9.793       9.517       9.095       8.447       7.521       6.222       4.514       2.418      2.4524E-02
   4    9.998       9.792       9.511       9.068       8.365       7.493       6.216       4.513       2.417      2.4523E-02
   5    9.998       9.790       9.500       9.002       8.005       7.427       6.205       4.511       2.417      2.4521E-02
   6    9.998       9.792       9.511       9.068       8.365       7.493       6.216       4.513       2.417      2.4523E-02
   7    9.998       9.793       9.517       9.095       8.447       7.521       6.222       4.514       2.418      2.4524E-02
   8    9.998       9.793       9.519       9.102       8.463       7.528       6.224       4.515       2.418      2.4525E-02
   9    9.998       9.793       9.519       9.103       8.466       7.529       6.224       4.515       2.418      2.4525E-02
  10    9.998       9.793       9.519       9.103       8.466       7.529       6.224       4.515       2.418      2.4525E-02

 HEAD WILL BE SAVED ON UNIT   51 AT END OF TIME STEP   12, STRESS PERIOD    3

 DRAWDOWN WILL BE SAVED ON UNIT   52 AT END OF TIME STEP   12, STRESS PERIOD    3
1
  VOLUMETRIC BUDGET FOR ENTIRE MODEL AT END OF TIME STEP   12, STRESS PERIOD   3
  ------------------------------------------------------------------------------

     CUMULATIVE VOLUMES      L**3       RATES FOR THIS TIME STEP      L**3/T
     ------------------                 ------------------------

           IN:                                      IN:
           ---                                      ---
             STORAGE =      325298.5938               STORAGE =        1203.5204
       CONSTANT HEAD =           0.0000         CONSTANT HEAD =           0.0000
               WELLS =           0.0000                 WELLS =           0.0000
     HEAD DEP BOUNDS =        3728.7107       HEAD DEP BOUNDS =         122.6931

            TOTAL IN =      329027.3125              TOTAL IN =        1326.2135

          OUT:                                     OUT:
          ----                                     ----
             STORAGE =           0.0000               STORAGE =           0.0000
       CONSTANT HEAD =           0.0000         CONSTANT HEAD =           0.0000
               WELLS =        1200.0000                 WELLS =         100.0000
     HEAD DEP BOUNDS =      327827.3125       HEAD DEP BOUNDS =        1226.1923

           TOTAL OUT =      329027.3125             TOTAL OUT =        1326.1923

            IN - OUT =           0.0000              IN - OUT =       2.1240E-02

 PERCENT DISCREPANCY =           0.00     PERCENT DISCREPANCY =           0.00






         TIME SUMMARY AT END OF TIME STEP   12 IN STRESS PERIOD    3
                    SECONDS     MINUTES      HOURS       DAYS        YEARS
                    -----------------------------------------------------------
   TIME STEP LENGTH  86400.      1440.0      24.000      1.0000     2.73785E-03
 STRESS PERIOD TIME 1.03680E+06  17280.      288.00      12.000     3.28542E-02
         TOTAL TIME 9.76320E+06 1.62720E+05  2712.0      113.00     0.30938    
1
 
 SOLVING FOR HEAD 

 OUTPUT CONTROL FOR STRESS PERIOD    3   TIME STEP   13
    SAVE HEAD FOR ALL LAYERS
    SAVE DRAWDOWN FOR ALL LAYERS
    SAVE BUDGET
    PRINT HEAD FOR ALL LAYERS
    PRINT BUDGET
 UBDSV1 SAVING "         STORAGE" ON UNIT  53 AT TIME STEP 13, STRESS PERIOD   3
 UBDSV2 SAVING "   CONSTANT HEAD" ON UNIT  53 AT TIME STEP 13, STRESS PERIOD   3
 UBDSV1 SAVING "FLOW RIGHT FACE " ON UNIT  53 AT TIME STEP 13, STRESS PERIOD   3
 UBDSV1 SAVING "FLOW FRONT FACE " ON UNIT  53 AT TIME STEP 13, STRESS PERIOD   3
1
              HEAD IN LAYER   1 AT END OF TIME STEP  13 IN STRESS PERIOD    3
  ---------------------------------------------------------------------------

            1           2           3           4           5           6           7           8           9          10
 ........................................................................................................................
   1    9.998       9.789       9.511       9.090       8.449       7.509       6.204       4.497       2.407      2.4418E-02
   2    9.998       9.789       9.510       9.088       8.446       7.507       6.203       4.497       2.407      2.4417E-02
   3    9.998       9.788       9.508       9.080       8.427       7.499       6.201       4.497       2.407      2.4417E-02
   4    9.998       9.787       9.501       9.050       8.340       7.469       6.194       4.495       2.407      2.4415E-02
   5    9.998       9.785       9.489       8.981       7.974       7.399       6.182       4.494       2.407      2.4412E-02
   6    9.998       9.787       9.501       9.050       8.340       7.469       6.194       4.495       2.407      2.4415E-02
   7    9.998       9.788       9.508       9.080       8.427       7.499       6.201       4.497       2.407      2.4417E-02
   8    9.998       9.789       9.510       9.088       8.446       7.507       6.203       4.497       2.407      2.4417E-02
   9    9.998       9.789       9.511       9.090       8.449       7.509       6.204       4.497       2.407      2.4418E-02
  10    9.998       9.789       9.511       9.090       8.449       7.509       6.204       4.497       2.407      2.4418E-02

 HEAD WILL BE SAVED ON UNIT   51 AT END OF TIME STEP   13, STRESS PERIOD    3

 DRAWDOWN WILL BE SAVED ON UNIT   52 AT END OF TIME STEP   13, STRESS PERIOD    3
1
  VOLUMETRIC BUDGET FOR ENTIRE MODEL AT END OF TIME STEP   13, STRESS PERIOD   3
  ------------------------------------------------------------------------------

     CUMULATIVE VOLUMES      L**3       RATES FOR THIS TIME STEP      L**3/T
     ------------------                 ------------------------

           IN:                                      IN:
           ---                                      ---
             STORAGE =      326494.1875               STORAGE =        1195.5999
       CONSTANT HEAD =           0.0000         CONSTANT HEAD =           0.0000
               WELLS =           0.0000                 WELLS =           0.0000
     HEAD DEP BOUNDS =        3853.9250       HEAD DEP BOUNDS =         125.2144

            TOTAL IN =      330348.1250              TOTAL IN =        1320.8143

          OUT:                                     OUT:
          ----                                     ----
             STORAGE =           0.0000               STORAGE =           0.0000
       CONSTANT HEAD =           0.0000         CONSTANT HEAD =           0.0000
               WELLS =        1300.0000                 WELLS =         100.0000
     HEAD DEP BOUNDS =      329048.1250       HEAD DEP BOUNDS =        1220.8141

           TOTAL OUT =      330348.1250             TOTAL OUT =        1320.8141

            IN - OUT =           0.0000              IN - OUT =       2.4414E-04

 PERCENT DISCREPANCY =           0.00     PERCENT DISCREPANCY =           0.00






         TIME SUMMARY AT END OF TIME STEP   13 IN STRESS PERIOD    3
                    SECONDS     MINUTES      HOURS       DAYS        YEARS
                    -----------------------------------------------------------
   TIME STEP LENGTH  86400.      1440.0      24.000      1.0000     2.73785E-03
 STRESS PERIOD TIME 1.12320E+06  18720.      312.00      13.000     3.55921E-02
         TOTAL TIME 9.84960E+06 1.64160E+05  2736.0      114.00     0.31211    
1
 
 SOLVING FOR HEAD 

 OUTPUT CONTROL FOR STRESS PERIOD    3   TIME STEP   14
    SAVE HEAD FOR ALL LAYERS
    SAVE DRAWDOWN FOR ALL LAYERS
    SAVE BUDGET
    PRINT HEAD FOR ALL LAYERS
    PRINT BUDGET
 UBDSV1 SAVING "         STORAGE" ON UNIT  53 AT TIME STEP 14, STRESS PERIOD   3
 UBDSV2 SAVING "   CONSTANT HEAD" ON UNIT  53 AT TIME STEP 14, STRESS PERIOD   3
 UBDSV1 SAVING "FLOW RIGHT FACE " ON UNIT  53 AT TIME STEP 14, STRESS PERIOD   3
 UBDSV1 SAVING "FLOW FRONT FACE " ON UNIT  53 AT TIME STEP 14, STRESS PERIOD   3
1
              HEAD IN LAYER   1 AT END OF TIME STEP  14 IN STRESS PERIOD    3
  ---------------------------------------------------------------------------

            1           2           3           4           5           6           7           8           9          10
 ........................................................................................................................
   1    9.998       9.785       9.502       9.077       8.432       7.489       6.184       4.480       2.397      2.4312E-02
   2    9.998       9.785       9.502       9.075       8.428       7.487       6.183       4.480       2.397      2.4312E-02
   3    9.998       9.784       9.499       9.066       8.408       7.478       6.180       4.480       2.397      2.4311E-02
   4    9.998       9.783       9.491       9.033       8.315       7.445       6.172       4.478       2.397      2.4308E-02
   5    9.998       9.781       9.478       8.961       7.943       7.371       6.159       4.476       2.397      2.4305E-02
   6    9.998       9.783       9.491       9.033       8.315       7.445       6.172       4.478       2.397      2.4308E-02
   7    9.998       9.784       9.499       9.066       8.408       7.478       6.180       4.480       2.397      2.4311E-02
   8    9.998       9.785       9.502       9.075       8.428       7.487       6.183       4.480       2.397      2.4312E-02
   9    9.998       9.785       9.502       9.077       8.432       7.489       6.184       4.480       2.397      2.4312E-02
  10    9.998       9.785       9.503       9.078       8.433       7.490       6.184       4.480       2.397      2.4312E-02

 HEAD WILL BE SAVED ON UNIT   51 AT END OF TIME STEP   14, STRESS PERIOD    3

 DRAWDOWN WILL BE SAVED ON UNIT   52 AT END OF TIME STEP   14, STRESS PERIOD    3
1
  VOLUMETRIC BUDGET FOR ENTIRE MODEL AT END OF TIME STEP   14, STRESS PERIOD   3
  ------------------------------------------------------------------------------

     CUMULATIVE VOLUMES      L**3       RATES FOR THIS TIME STEP      L**3/T
     ------------------                 ------------------------

           IN:                                      IN:
           ---                                      ---
             STORAGE =      327681.9375               STORAGE =        1187.7552
       CONSTANT HEAD =           0.0000         CONSTANT HEAD =           0.0000
               WELLS =           0.0000                 WELLS =           0.0000
     HEAD DEP BOUNDS =        3981.6763       HEAD DEP BOUNDS =         127.7513

            TOTAL IN =      331663.6250              TOTAL IN =        1315.5066

          OUT:                                     OUT:
          ----                                     ----
             STORAGE =           0.0000               STORAGE =           0.0000
       CONSTANT HEAD =           0.0000         CONSTANT HEAD =           0.0000
               WELLS =        1400.0000                 WELLS =         100.0000
     HEAD DEP BOUNDS =      330263.6250       HEAD DEP BOUNDS =        1215.5126

           TOTAL OUT =      331663.6250             TOTAL OUT =        1315.5126

            IN - OUT =           0.0000              IN - OUT =      -5.9814E-03

 PERCENT DISCREPANCY =           0.00     PERCENT DISCREPANCY =          -0.00






         TIME SUMMARY AT END OF TIME STEP   14 IN STRESS PERIOD    3
                    SECONDS     MINUTES      HOURS       DAYS        YEARS
                    -----------------------------------------------------------
   TIME STEP LENGTH  86400.      1440.0      24.000      1.0000     2.73785E-03
 STRESS PERIOD TIME 1.20960E+06  20160.      336.00      14.000     3.83299E-02
         TOTAL TIME 9.93600E+06 1.65600E+05  2760.0      115.00     0.31485    
1
 
 SOLVING FOR HEAD 

 OUTPUT CONTROL FOR STRESS PERIOD    3   TIME STEP   15
    SAVE HEAD FOR ALL LAYERS
    SAVE DRAWDOWN FOR ALL LAYERS
    SAVE BUDGET
    PRINT HEAD FOR ALL LAYERS
    PRINT BUDGET
 UBDSV1 SAVING "         STORAGE" ON UNIT  53 AT TIME STEP 15, STRESS PERIOD   3
 UBDSV2 SAVING "   CONSTANT HEAD" ON UNIT  53 AT TIME STEP 15, STRESS PERIOD   3
 UBDSV1 SAVING "FLOW RIGHT FACE " ON UNIT  53 AT TIME STEP 15, STRESS PERIOD   3
 UBDSV1 SAVING "FLOW FRONT FACE " ON UNIT  53 AT TIME STEP 15, STRESS PERIOD   3
1
              HEAD IN LAYER   1 AT END OF TIME STEP  15 IN STRESS PERIOD    3
  ---------------------------------------------------------------------------

            1           2           3           4           5           6           7           8           9          10
 ........................................................................................................................
   1    9.998       9.781       9.494       9.064       8.415       7.470       6.164       4.463       2.387      2.4208E-02
   2    9.998       9.781       9.493       9.062       8.411       7.467       6.163       4.463       2.387      2.4207E-02
   3    9.998       9.780       9.490       9.052       8.389       7.457       6.160       4.463       2.387      2.4206E-02
   4    9.998       9.778       9.481       9.016       8.291       7.421       6.151       4.461       2.387      2.4203E-02
   5    9.998       9.776       9.467       8.941       7.914       7.344       6.136       4.458       2.386      2.4199E-02
   6    9.998       9.778       9.481       9.016       8.291       7.421       6.151       4.461       2.387      2.4203E-02
   7    9.998       9.780       9.490       9.052       8.389       7.457       6.160       4.463       2.387      2.4206E-02
   8    9.998       9.781       9.493       9.062       8.411       7.467       6.163       4.463       2.387      2.4207E-02
   9    9.998       9.781       9.494       9.064       8.415       7.470       6.164       4.463       2.387      2.4208E-02
  10    9.998       9.781       9.494       9.065       8.416       7.470       6.164       4.464       2.387      2.4208E-02

 HEAD WILL BE SAVED ON UNIT   51 AT END OF TIME STEP   15, STRESS PERIOD    3

 DRAWDOWN WILL BE SAVED ON UNIT   52 AT END OF TIME STEP   15, STRESS PERIOD    3
1
  VOLUMETRIC BUDGET FOR ENTIRE MODEL AT END OF TIME STEP   15, STRESS PERIOD   3
  ------------------------------------------------------------------------------

     CUMULATIVE VOLUMES      L**3       RATES FOR THIS TIME STEP      L**3/T
     ------------------                 ------------------------

           IN:                                      IN:
           ---                                      ---
             STORAGE =      328861.9062               STORAGE =        1179.9592
       CONSTANT HEAD =           0.0000         CONSTANT HEAD =           0.0000
               WELLS =           0.0000                 WELLS =           0.0000
     HEAD DEP BOUNDS =        4111.9795       HEAD DEP BOUNDS =         130.3032

            TOTAL IN =      332973.8750              TOTAL IN =        1310.2625

          OUT:                                     OUT:
          ----                                     ----
             STORAGE =           0.0000               STORAGE =           0.0000
       CONSTANT HEAD =           0.0000         CONSTANT HEAD =           0.0000
               WELLS =        1500.0000                 WELLS =         100.0000
     HEAD DEP BOUNDS =      331473.9062       HEAD DEP BOUNDS =        1210.2737

           TOTAL OUT =      332973.9062             TOTAL OUT =        1310.2737

            IN - OUT =      -3.1250E-02              IN - OUT =      -1.1230E-02

 PERCENT DISCREPANCY =          -0.00     PERCENT DISCREPANCY =          -0.00






         TIME SUMMARY AT END OF TIME STEP   15 IN STRESS PERIOD    3
                    SECONDS     MINUTES      HOURS       DAYS        YEARS
                    -----------------------------------------------------------
   TIME STEP LENGTH  86400.      1440.0      24.000      1.0000     2.73785E-03
 STRESS PERIOD TIME 1.29600E+06  21600.      360.00      15.000     4.10678E-02
         TOTAL TIME 1.00224E+07 1.67040E+05  2784.0      116.00     0.31759    
1
 
 SOLVING FOR HEAD 

 OUTPUT CONTROL FOR STRESS PERIOD    3   TIME STEP   16
    SAVE HEAD FOR ALL LAYERS
    SAVE DRAWDOWN FOR ALL LAYERS
    SAVE BUDGET
    PRINT HEAD FOR ALL LAYERS
    PRINT BUDGET
 UBDSV1 SAVING "         STORAGE" ON UNIT  53 AT TIME STEP 16, STRESS PERIOD   3
 UBDSV2 SAVING "   CONSTANT HEAD" ON UNIT  53 AT TIME STEP 16, STRESS PERIOD   3
 UBDSV1 SAVING "FLOW RIGHT FACE " ON UNIT  53 AT TIME STEP 16, STRESS PERIOD   3
 UBDSV1 SAVING "FLOW FRONT FACE " ON UNIT  53 AT TIME STEP 16, STRESS PERIOD   3
1
              HEAD IN LAYER   1 AT END OF TIME STEP  16 IN STRESS PERIOD    3
  ---------------------------------------------------------------------------

            1           2           3           4           5           6           7           8           9          10
 ........................................................................................................................
   1    9.998       9.777       9.486       9.052       8.398       7.450       6.144       4.447       2.377      2.4105E-02
   2    9.998       9.776       9.485       9.049       8.393       7.448       6.143       4.447       2.377      2.4104E-02
   3    9.998       9.776       9.481       9.037       8.369       7.436       6.139       4.446       2.377      2.4102E-02
   4    9.998       9.773       9.471       8.999       8.268       7.397       6.129       4.443       2.377      2.4098E-02
   5    9.998       9.771       9.456       8.921       7.886       7.318       6.114       4.441       2.376      2.4094E-02
   6    9.998       9.773       9.471       8.999       8.268       7.397       6.129       4.443       2.377      2.4098E-02
   7    9.998       9.776       9.481       9.037       8.369       7.436       6.139       4.446       2.377      2.4102E-02
   8    9.998       9.776       9.485       9.049       8.393       7.448       6.143       4.447       2.377      2.4104E-02
   9    9.998       9.777       9.486       9.052       8.398       7.450       6.144       4.447       2.377      2.4105E-02
  10    9.998       9.777       9.486       9.052       8.399       7.451       6.144       4.447       2.377      2.4105E-02

 HEAD WILL BE SAVED ON UNIT   51 AT END OF TIME STEP   16, STRESS PERIOD    3

 DRAWDOWN WILL BE SAVED ON UNIT   52 AT END OF TIME STEP   16, STRESS PERIOD    3
1
  VOLUMETRIC BUDGET FOR ENTIRE MODEL AT END OF TIME STEP   16, STRESS PERIOD   3
  ------------------------------------------------------------------------------

     CUMULATIVE VOLUMES      L**3       RATES FOR THIS TIME STEP      L**3/T
     ------------------                 ------------------------

           IN:                                      IN:
           ---                                      ---
             STORAGE =      330034.0938               STORAGE =        1172.1979
       CONSTANT HEAD =           0.0000         CONSTANT HEAD =           0.0000
               WELLS =           0.0000                 WELLS =           0.0000
     HEAD DEP BOUNDS =        4244.8755       HEAD DEP BOUNDS =         132.8961

            TOTAL IN =      334278.9688              TOTAL IN =        1305.0940

          OUT:                                     OUT:
          ----                                     ----
             STORAGE =           0.0000               STORAGE =           0.0000
       CONSTANT HEAD =           0.0000         CONSTANT HEAD =           0.0000
               WELLS =        1600.0000                 WELLS =         100.0000
     HEAD DEP BOUNDS =      332679.0000       HEAD DEP BOUNDS =        1205.0892

           TOTAL OUT =      334279.0000             TOTAL OUT =        1305.0892

            IN - OUT =      -3.1250E-02              IN - OUT =       4.7607E-03

 PERCENT DISCREPANCY =          -0.00     PERCENT DISCREPANCY =           0.00






         TIME SUMMARY AT END OF TIME STEP   16 IN STRESS PERIOD    3
                    SECONDS     MINUTES      HOURS       DAYS        YEARS
                    -----------------------------------------------------------
   TIME STEP LENGTH  86400.      1440.0      24.000      1.0000     2.73785E-03
 STRESS PERIOD TIME 1.38240E+06  23040.      384.00      16.000     4.38056E-02
         TOTAL TIME 1.01088E+07 1.68480E+05  2808.0      117.00     0.32033    
1
 
 SOLVING FOR HEAD 

 OUTPUT CONTROL FOR STRESS PERIOD    3   TIME STEP   17
    SAVE HEAD FOR ALL LAYERS
    SAVE DRAWDOWN FOR ALL LAYERS
    SAVE BUDGET
    PRINT HEAD FOR ALL LAYERS
    PRINT BUDGET
 UBDSV1 SAVING "         STORAGE" ON UNIT  53 AT TIME STEP 17, STRESS PERIOD   3
 UBDSV2 SAVING "   CONSTANT HEAD" ON UNIT  53 AT TIME STEP 17, STRESS PERIOD   3
 UBDSV1 SAVING "FLOW RIGHT FACE " ON UNIT  53 AT TIME STEP 17, STRESS PERIOD   3
 UBDSV1 SAVING "FLOW FRONT FACE " ON UNIT  53 AT TIME STEP 17, STRESS PERIOD   3
1
              HEAD IN LAYER   1 AT END OF TIME STEP  17 IN STRESS PERIOD    3
  ---------------------------------------------------------------------------

            1           2           3           4           5           6           7           8           9          10
 ........................................................................................................................
   1    9.998       9.773       9.477       9.039       8.381       7.431       6.125       4.430       2.367      2.4003E-02
   2    9.998       9.772       9.476       9.036       8.376       7.428       6.123       4.430       2.367      2.4002E-02
   3    9.998       9.771       9.472       9.023       8.350       7.415       6.119       4.429       2.367      2.4000E-02
   4    9.998       9.769       9.460       8.981       8.244       7.373       6.108       4.426       2.367      2.3995E-02
   5    9.998       9.766       9.445       8.902       7.859       7.292       6.092       4.423       2.366      2.3991E-02
   6    9.998       9.769       9.460       8.981       8.244       7.373       6.108       4.426       2.367      2.3995E-02
   7    9.998       9.771       9.472       9.023       8.350       7.415       6.119       4.429       2.367      2.4000E-02
   8    9.998       9.772       9.476       9.036       8.376       7.428       6.123       4.430       2.367      2.4002E-02
   9    9.998       9.773       9.477       9.039       8.382       7.431       6.125       4.430       2.367      2.4003E-02
  10    9.998       9.773       9.477       9.040       8.383       7.432       6.125       4.430       2.367      2.4003E-02

 HEAD WILL BE SAVED ON UNIT   51 AT END OF TIME STEP   17, STRESS PERIOD    3

 DRAWDOWN WILL BE SAVED ON UNIT   52 AT END OF TIME STEP   17, STRESS PERIOD    3
1
  VOLUMETRIC BUDGET FOR ENTIRE MODEL AT END OF TIME STEP   17, STRESS PERIOD   3
  ------------------------------------------------------------------------------

     CUMULATIVE VOLUMES      L**3       RATES FOR THIS TIME STEP      L**3/T
     ------------------                 ------------------------

           IN:                                      IN:
           ---                                      ---
             STORAGE =      331198.5938               STORAGE =        1164.4958
       CONSTANT HEAD =           0.0000         CONSTANT HEAD =           0.0000
               WELLS =           0.0000                 WELLS =           0.0000
     HEAD DEP BOUNDS =        4380.3716       HEAD DEP BOUNDS =         135.4961

            TOTAL IN =      335578.9688              TOTAL IN =        1299.9919

          OUT:                                     OUT:
          ----                                     ----
             STORAGE =           0.0000               STORAGE =           0.0000
       CONSTANT HEAD =           0.0000         CONSTANT HEAD =           0.0000
               WELLS =        1700.0000                 WELLS =         100.0000
     HEAD DEP BOUNDS =      333878.9688       HEAD DEP BOUNDS =        1199.9750

           TOTAL OUT =      335578.9688             TOTAL OUT =        1299.9750

            IN - OUT =           0.0000              IN - OUT =       1.6968E-02

 PERCENT DISCREPANCY =           0.00     PERCENT DISCREPANCY =           0.00






         TIME SUMMARY AT END OF TIME STEP   17 IN STRESS PERIOD    3
                    SECONDS     MINUTES      HOURS       DAYS        YEARS
                    -----------------------------------------------------------
   TIME STEP LENGTH  86400.      1440.0      24.000      1.0000     2.73785E-03
 STRESS PERIOD TIME 1.46880E+06  24480.      408.00      17.000     4.65435E-02
         TOTAL TIME 1.01952E+07 1.69920E+05  2832.0      118.00     0.32307    
1
 
 SOLVING FOR HEAD 

 OUTPUT CONTROL FOR STRESS PERIOD    3   TIME STEP   18
    SAVE HEAD FOR ALL LAYERS
    SAVE DRAWDOWN FOR ALL LAYERS
    SAVE BUDGET
    PRINT HEAD FOR ALL LAYERS
    PRINT BUDGET
 UBDSV1 SAVING "         STORAGE" ON UNIT  53 AT TIME STEP 18, STRESS PERIOD   3
 UBDSV2 SAVING "   CONSTANT HEAD" ON UNIT  53 AT TIME STEP 18, STRESS PERIOD   3
 UBDSV1 SAVING "FLOW RIGHT FACE " ON UNIT  53 AT TIME STEP 18, STRESS PERIOD   3
 UBDSV1 SAVING "FLOW FRONT FACE " ON UNIT  53 AT TIME STEP 18, STRESS PERIOD   3
1
              HEAD IN LAYER   1 AT END OF TIME STEP  18 IN STRESS PERIOD    3
  ---------------------------------------------------------------------------

            1           2           3           4           5           6           7           8           9          10
 ........................................................................................................................
   1    9.998       9.768       9.469       9.026       8.365       7.412       6.105       4.414       2.358      2.3902E-02
   2    9.998       9.768       9.467       9.022       8.359       7.408       6.104       4.414       2.358      2.3901E-02
   3    9.998       9.767       9.462       9.008       8.331       7.394       6.099       4.412       2.357      2.3899E-02
   4    9.998       9.764       9.450       8.964       8.221       7.350       6.086       4.409       2.357      2.3893E-02
   5    9.998       9.761       9.434       8.883       7.833       7.266       6.069       4.406       2.356      2.3888E-02
   6    9.998       9.764       9.450       8.964       8.221       7.350       6.086       4.409       2.357      2.3893E-02
   7    9.998       9.767       9.462       9.008       8.331       7.394       6.099       4.412       2.357      2.3899E-02
   8    9.998       9.768       9.467       9.022       8.359       7.408       6.104       4.414       2.358      2.3901E-02
   9    9.998       9.768       9.469       9.026       8.365       7.412       6.105       4.414       2.358      2.3902E-02
  10    9.998       9.769       9.469       9.027       8.366       7.413       6.106       4.414       2.358      2.3903E-02

 HEAD WILL BE SAVED ON UNIT   51 AT END OF TIME STEP   18, STRESS PERIOD    3

 DRAWDOWN WILL BE SAVED ON UNIT   52 AT END OF TIME STEP   18, STRESS PERIOD    3
1
  VOLUMETRIC BUDGET FOR ENTIRE MODEL AT END OF TIME STEP   18, STRESS PERIOD   3
  ------------------------------------------------------------------------------

     CUMULATIVE VOLUMES      L**3       RATES FOR THIS TIME STEP      L**3/T
     ------------------                 ------------------------

           IN:                                      IN:
           ---                                      ---
             STORAGE =      332355.4062               STORAGE =        1156.8231
       CONSTANT HEAD =           0.0000         CONSTANT HEAD =           0.0000
               WELLS =           0.0000                 WELLS =           0.0000
     HEAD DEP BOUNDS =        4518.4741       HEAD DEP BOUNDS =         138.1025

            TOTAL IN =      336873.8750              TOTAL IN =        1294.9257

          OUT:                                     OUT:
          ----                                     ----
             STORAGE =           0.0000               STORAGE =           0.0000
       CONSTANT HEAD =           0.0000         CONSTANT HEAD =           0.0000
               WELLS =        1800.0000                 WELLS =         100.0000
     HEAD DEP BOUNDS =      335073.8750       HEAD DEP BOUNDS =        1194.9119

           TOTAL OUT =      336873.8750             TOTAL OUT =        1294.9119

            IN - OUT =           0.0000              IN - OUT =       1.3794E-02

 PERCENT DISCREPANCY =           0.00     PERCENT DISCREPANCY =           0.00






         TIME SUMMARY AT END OF TIME STEP   18 IN STRESS PERIOD    3
                    SECONDS     MINUTES      HOURS       DAYS        YEARS
                    -----------------------------------------------------------
   TIME STEP LENGTH  86400.      1440.0      24.000      1.0000     2.73785E-03
 STRESS PERIOD TIME 1.55520E+06  25920.      432.00      18.000     4.92813E-02
         TOTAL TIME 1.02816E+07 1.71360E+05  2856.0      119.00     0.32580    
1
 
 SOLVING FOR HEAD 

 OUTPUT CONTROL FOR STRESS PERIOD    3   TIME STEP   19
    SAVE HEAD FOR ALL LAYERS
    SAVE DRAWDOWN FOR ALL LAYERS
    SAVE BUDGET
    PRINT HEAD FOR ALL LAYERS
    PRINT BUDGET
 UBDSV1 SAVING "         STORAGE" ON UNIT  53 AT TIME STEP 19, STRESS PERIOD   3
 UBDSV2 SAVING "   CONSTANT HEAD" ON UNIT  53 AT TIME STEP 19, STRESS PERIOD   3
 UBDSV1 SAVING "FLOW RIGHT FACE " ON UNIT  53 AT TIME STEP 19, STRESS PERIOD   3
 UBDSV1 SAVING "FLOW FRONT FACE " ON UNIT  53 AT TIME STEP 19, STRESS PERIOD   3
1
              HEAD IN LAYER   1 AT END OF TIME STEP  19 IN STRESS PERIOD    3
  ---------------------------------------------------------------------------

            1           2           3           4           5           6           7           8           9          10
 ........................................................................................................................
   1    9.998       9.764       9.460       9.013       8.348       7.393       6.086       4.398       2.348      2.3803E-02
   2    9.998       9.764       9.459       9.009       8.341       7.389       6.084       4.397       2.348      2.3802E-02
   3    9.998       9.762       9.453       8.993       8.312       7.373       6.079       4.396       2.348      2.3799E-02
   4    9.998       9.759       9.440       8.948       8.199       7.326       6.065       4.393       2.347      2.3792E-02
   5    9.998       9.756       9.422       8.864       7.807       7.241       6.047       4.389       2.347      2.3786E-02
   6    9.998       9.759       9.440       8.948       8.199       7.326       6.065       4.393       2.347      2.3792E-02
   7    9.998       9.762       9.453       8.993       8.312       7.373       6.079       4.396       2.348      2.3799E-02
   8    9.998       9.764       9.459       9.009       8.341       7.389       6.085       4.397       2.348      2.3802E-02
   9    9.998       9.764       9.460       9.013       8.348       7.393       6.086       4.398       2.348      2.3803E-02
  10    9.998       9.764       9.461       9.014       8.350       7.394       6.087       4.398       2.348      2.3804E-02

 HEAD WILL BE SAVED ON UNIT   51 AT END OF TIME STEP   19, STRESS PERIOD    3

 DRAWDOWN WILL BE SAVED ON UNIT   52 AT END OF TIME STEP   19, STRESS PERIOD    3
1
  VOLUMETRIC BUDGET FOR ENTIRE MODEL AT END OF TIME STEP   19, STRESS PERIOD   3
  ------------------------------------------------------------------------------

     CUMULATIVE VOLUMES      L**3       RATES FOR THIS TIME STEP      L**3/T
     ------------------                 ------------------------

           IN:                                      IN:
           ---                                      ---
             STORAGE =      333504.6250               STORAGE =        1149.2052
       CONSTANT HEAD =           0.0000         CONSTANT HEAD =           0.0000
               WELLS =           0.0000                 WELLS =           0.0000
     HEAD DEP BOUNDS =        4659.1821       HEAD DEP BOUNDS =         140.7080

            TOTAL IN =      338163.8125              TOTAL IN =        1289.9132

          OUT:                                     OUT:
          ----                                     ----
             STORAGE =           0.0000               STORAGE =           0.0000
       CONSTANT HEAD =           0.0000         CONSTANT HEAD =           0.0000
               WELLS =        1900.0000                 WELLS =         100.0000
     HEAD DEP BOUNDS =      336263.7812       HEAD DEP BOUNDS =        1189.9141

           TOTAL OUT =      338163.7812             TOTAL OUT =        1289.9141

            IN - OUT =       3.1250E-02              IN - OUT =      -8.5449E-04

 PERCENT DISCREPANCY =           0.00     PERCENT DISCREPANCY =          -0.00






         TIME SUMMARY AT END OF TIME STEP   19 IN STRESS PERIOD    3
                    SECONDS     MINUTES      HOURS       DAYS        YEARS
                    -----------------------------------------------------------
   TIME STEP LENGTH  86400.      1440.0      24.000      1.0000     2.73785E-03
 STRESS PERIOD TIME 1.64160E+06  27360.      456.00      19.000     5.20192E-02
         TOTAL TIME 1.03680E+07 1.72800E+05  2880.0      120.00     0.32854    
1
 
 SOLVING FOR HEAD 

 OUTPUT CONTROL FOR STRESS PERIOD    3   TIME STEP   20
    SAVE HEAD FOR ALL LAYERS
    SAVE DRAWDOWN FOR ALL LAYERS
    SAVE BUDGET
    PRINT HEAD FOR ALL LAYERS
    PRINT BUDGET
 UBDSV1 SAVING "         STORAGE" ON UNIT  53 AT TIME STEP 20, STRESS PERIOD   3
 UBDSV2 SAVING "   CONSTANT HEAD" ON UNIT  53 AT TIME STEP 20, STRESS PERIOD   3
 UBDSV1 SAVING "FLOW RIGHT FACE " ON UNIT  53 AT TIME STEP 20, STRESS PERIOD   3
 UBDSV1 SAVING "FLOW FRONT FACE " ON UNIT  53 AT TIME STEP 20, STRESS PERIOD   3
1
              HEAD IN LAYER   1 AT END OF TIME STEP  20 IN STRESS PERIOD    3
  ---------------------------------------------------------------------------

            1           2           3           4           5           6           7           8           9          10
 ........................................................................................................................
   1    9.998       9.760       9.452       9.000       8.331       7.374       6.067       4.382       2.339      2.3705E-02
   2    9.998       9.760       9.450       8.996       8.324       7.369       6.065       4.381       2.339      2.3704E-02
   3    9.998       9.758       9.444       8.979       8.293       7.352       6.059       4.380       2.338      2.3700E-02
   4    9.998       9.754       9.429       8.931       8.176       7.303       6.044       4.376       2.338      2.3692E-02
   5    9.998       9.751       9.411       8.846       7.782       7.216       6.026       4.372       2.337      2.3686E-02
   6    9.998       9.754       9.429       8.931       8.176       7.303       6.044       4.376       2.338      2.3692E-02
   7    9.998       9.758       9.444       8.979       8.293       7.352       6.059       4.380       2.338      2.3700E-02
   8    9.998       9.760       9.450       8.996       8.324       7.369       6.065       4.381       2.339      2.3704E-02
   9    9.998       9.760       9.452       9.001       8.332       7.374       6.067       4.382       2.339      2.3705E-02
  10    9.998       9.760       9.452       9.002       8.333       7.375       6.068       4.382       2.339      2.3705E-02

 HEAD WILL BE SAVED ON UNIT   51 AT END OF TIME STEP   20, STRESS PERIOD    3

 DRAWDOWN WILL BE SAVED ON UNIT   52 AT END OF TIME STEP   20, STRESS PERIOD    3
1
  VOLUMETRIC BUDGET FOR ENTIRE MODEL AT END OF TIME STEP   20, STRESS PERIOD   3
  ------------------------------------------------------------------------------

     CUMULATIVE VOLUMES      L**3       RATES FOR THIS TIME STEP      L**3/T
     ------------------                 ------------------------

           IN:                                      IN:
           ---                                      ---
             STORAGE =      334646.2500               STORAGE =        1141.6196
       CONSTANT HEAD =           0.0000         CONSTANT HEAD =           0.0000
               WELLS =           0.0000                 WELLS =           0.0000
     HEAD DEP BOUNDS =        4802.5400       HEAD DEP BOUNDS =         143.3580

            TOTAL IN =      339448.7812              TOTAL IN =        1284.9775

          OUT:                                     OUT:
          ----                                     ----
             STORAGE =           0.0000               STORAGE =           0.0000
       CONSTANT HEAD =           0.0000         CONSTANT HEAD =           0.0000
               WELLS =        2000.0000                 WELLS =         100.0000
     HEAD DEP BOUNDS =      337448.7500       HEAD DEP BOUNDS =        1184.9673

           TOTAL OUT =      339448.7500             TOTAL OUT =        1284.9673

            IN - OUT =       3.1250E-02              IN - OUT =       1.0254E-02

 PERCENT DISCREPANCY =           0.00     PERCENT DISCREPANCY =           0.00






         TIME SUMMARY AT END OF TIME STEP   20 IN STRESS PERIOD    3
                    SECONDS     MINUTES      HOURS       DAYS        YEARS
                    -----------------------------------------------------------
   TIME STEP LENGTH  86400.      1440.0      24.000      1.0000     2.73785E-03
 STRESS PERIOD TIME 1.72800E+06  28800.      480.00      20.000     5.47570E-02
         TOTAL TIME 1.04544E+07 1.74240E+05  2904.0      121.00     0.33128    
1
 
 SOLVING FOR HEAD 

 OUTPUT CONTROL FOR STRESS PERIOD    3   TIME STEP   21
    SAVE HEAD FOR ALL LAYERS
    SAVE DRAWDOWN FOR ALL LAYERS
    SAVE BUDGET
    PRINT HEAD FOR ALL LAYERS
    PRINT BUDGET
 UBDSV1 SAVING "         STORAGE" ON UNIT  53 AT TIME STEP 21, STRESS PERIOD   3
 UBDSV2 SAVING "   CONSTANT HEAD" ON UNIT  53 AT TIME STEP 21, STRESS PERIOD   3
 UBDSV1 SAVING "FLOW RIGHT FACE " ON UNIT  53 AT TIME STEP 21, STRESS PERIOD   3
 UBDSV1 SAVING "FLOW FRONT FACE " ON UNIT  53 AT TIME STEP 21, STRESS PERIOD   3
1
              HEAD IN LAYER   1 AT END OF TIME STEP  21 IN STRESS PERIOD    3
  ---------------------------------------------------------------------------

            1           2           3           4           5           6           7           8           9          10
 ........................................................................................................................
   1    9.998       9.756       9.443       8.988       8.315       7.355       6.048       4.366       2.329      2.3608E-02
   2    9.998       9.755       9.441       8.983       8.307       7.350       6.046       4.365       2.329      2.3606E-02
   3    9.998       9.753       9.435       8.964       8.274       7.332       6.039       4.364       2.329      2.3602E-02
   4    9.998       9.750       9.419       8.914       8.154       7.280       6.024       4.360       2.328      2.3594E-02
   5    9.997       9.746       9.400       8.827       7.758       7.192       6.004       4.356       2.327      2.3586E-02
   6    9.998       9.750       9.419       8.914       8.154       7.280       6.024       4.360       2.328      2.3594E-02
   7    9.998       9.753       9.435       8.964       8.274       7.332       6.039       4.364       2.329      2.3602E-02
   8    9.998       9.755       9.441       8.983       8.307       7.350       6.046       4.365       2.329      2.3607E-02
   9    9.998       9.756       9.443       8.988       8.315       7.355       6.048       4.366       2.329      2.3608E-02
  10    9.998       9.756       9.444       8.989       8.317       7.356       6.049       4.366       2.329      2.3609E-02

 HEAD WILL BE SAVED ON UNIT   51 AT END OF TIME STEP   21, STRESS PERIOD    3

 DRAWDOWN WILL BE SAVED ON UNIT   52 AT END OF TIME STEP   21, STRESS PERIOD    3
1
  VOLUMETRIC BUDGET FOR ENTIRE MODEL AT END OF TIME STEP   21, STRESS PERIOD   3
  ------------------------------------------------------------------------------

     CUMULATIVE VOLUMES      L**3       RATES FOR THIS TIME STEP      L**3/T
     ------------------                 ------------------------

           IN:                                      IN:
           ---                                      ---
             STORAGE =      335780.3125               STORAGE =        1134.0717
       CONSTANT HEAD =           0.0000         CONSTANT HEAD =           0.0000
               WELLS =           0.0000                 WELLS =           0.0000
     HEAD DEP BOUNDS =        4948.5322       HEAD DEP BOUNDS =         145.9920

            TOTAL IN =      340728.8438              TOTAL IN =        1280.0637

          OUT:                                     OUT:
          ----                                     ----
             STORAGE =           0.0000               STORAGE =           0.0000
       CONSTANT HEAD =           0.0000         CONSTANT HEAD =           0.0000
               WELLS =        2100.0000                 WELLS =         100.0000
     HEAD DEP BOUNDS =      338628.8125       HEAD DEP BOUNDS =        1180.0780

           TOTAL OUT =      340728.8125             TOTAL OUT =        1280.0780

            IN - OUT =       3.1250E-02              IN - OUT =      -1.4282E-02

 PERCENT DISCREPANCY =           0.00     PERCENT DISCREPANCY =          -0.00






         TIME SUMMARY AT END OF TIME STEP   21 IN STRESS PERIOD    3
                    SECONDS     MINUTES      HOURS       DAYS        YEARS
                    -----------------------------------------------------------
   TIME STEP LENGTH  86400.      1440.0      24.000      1.0000     2.73785E-03
 STRESS PERIOD TIME 1.81440E+06  30240.      504.00      21.000     5.74949E-02
         TOTAL TIME 1.05408E+07 1.75680E+05  2928.0      122.00     0.33402    
1
 
 SOLVING FOR HEAD 

 OUTPUT CONTROL FOR STRESS PERIOD    3   TIME STEP   22
    SAVE HEAD FOR ALL LAYERS
    SAVE DRAWDOWN FOR ALL LAYERS
    SAVE BUDGET
    PRINT HEAD FOR ALL LAYERS
    PRINT BUDGET
 UBDSV1 SAVING "         STORAGE" ON UNIT  53 AT TIME STEP 22, STRESS PERIOD   3
 UBDSV2 SAVING "   CONSTANT HEAD" ON UNIT  53 AT TIME STEP 22, STRESS PERIOD   3
 UBDSV1 SAVING "FLOW RIGHT FACE " ON UNIT  53 AT TIME STEP 22, STRESS PERIOD   3
 UBDSV1 SAVING "FLOW FRONT FACE " ON UNIT  53 AT TIME STEP 22, STRESS PERIOD   3
1
              HEAD IN LAYER   1 AT END OF TIME STEP  22 IN STRESS PERIOD    3
  ---------------------------------------------------------------------------

            1           2           3           4           5           6           7           8           9          10
 ........................................................................................................................
   1    9.998       9.752       9.435       8.975       8.298       7.336       6.029       4.350       2.320      2.3512E-02
   2    9.998       9.751       9.432       8.969       8.290       7.331       6.027       4.350       2.320      2.3511E-02
   3    9.998       9.749       9.425       8.950       8.255       7.311       6.020       4.348       2.320      2.3505E-02
   4    9.997       9.745       9.409       8.897       8.133       7.258       6.003       4.343       2.319      2.3496E-02
   5    9.997       9.741       9.389       8.809       7.734       7.167       5.983       4.339       2.318      2.3488E-02
   6    9.997       9.745       9.409       8.897       8.133       7.258       6.003       4.343       2.319      2.3496E-02
   7    9.998       9.749       9.425       8.950       8.255       7.311       6.020       4.348       2.320      2.3506E-02
   8    9.998       9.751       9.433       8.969       8.290       7.331       6.027       4.350       2.320      2.3511E-02
   9    9.998       9.752       9.435       8.975       8.299       7.337       6.030       4.350       2.320      2.3513E-02
  10    9.998       9.752       9.436       8.977       8.301       7.338       6.030       4.351       2.320      2.3513E-02

 HEAD WILL BE SAVED ON UNIT   51 AT END OF TIME STEP   22, STRESS PERIOD    3

 DRAWDOWN WILL BE SAVED ON UNIT   52 AT END OF TIME STEP   22, STRESS PERIOD    3
1
  VOLUMETRIC BUDGET FOR ENTIRE MODEL AT END OF TIME STEP   22, STRESS PERIOD   3
  ------------------------------------------------------------------------------

     CUMULATIVE VOLUMES      L**3       RATES FOR THIS TIME STEP      L**3/T
     ------------------                 ------------------------

           IN:                                      IN:
           ---                                      ---
             STORAGE =      336906.9062               STORAGE =        1126.5939
       CONSTANT HEAD =           0.0000         CONSTANT HEAD =           0.0000
               WELLS =           0.0000                 WELLS =           0.0000
     HEAD DEP BOUNDS =        5097.2012       HEAD DEP BOUNDS =         148.6691

            TOTAL IN =      342004.0938              TOTAL IN =        1275.2629

          OUT:                                     OUT:
          ----                                     ----
             STORAGE =           0.0000               STORAGE =           0.0000
       CONSTANT HEAD =           0.0000         CONSTANT HEAD =           0.0000
               WELLS =        2200.0000                 WELLS =         100.0000
     HEAD DEP BOUNDS =      339804.0625       HEAD DEP BOUNDS =        1175.2473

           TOTAL OUT =      342004.0625             TOTAL OUT =        1275.2473

            IN - OUT =       3.1250E-02              IN - OUT =       1.5625E-02

 PERCENT DISCREPANCY =           0.00     PERCENT DISCREPANCY =           0.00






         TIME SUMMARY AT END OF TIME STEP   22 IN STRESS PERIOD    3
                    SECONDS     MINUTES      HOURS       DAYS        YEARS
                    -----------------------------------------------------------
   TIME STEP LENGTH  86400.      1440.0      24.000      1.0000     2.73785E-03
 STRESS PERIOD TIME 1.90080E+06  31680.      528.00      22.000     6.02327E-02
         TOTAL TIME 1.06272E+07 1.77120E+05  2952.0      123.00     0.33676    
1
 
 SOLVING FOR HEAD 

 OUTPUT CONTROL FOR STRESS PERIOD    3   TIME STEP   23
    SAVE HEAD FOR ALL LAYERS
    SAVE DRAWDOWN FOR ALL LAYERS
    SAVE BUDGET
    PRINT HEAD FOR ALL LAYERS
    PRINT BUDGET
 UBDSV1 SAVING "         STORAGE" ON UNIT  53 AT TIME STEP 23, STRESS PERIOD   3
 UBDSV2 SAVING "   CONSTANT HEAD" ON UNIT  53 AT TIME STEP 23, STRESS PERIOD   3
 UBDSV1 SAVING "FLOW RIGHT FACE " ON UNIT  53 AT TIME STEP 23, STRESS PERIOD   3
 UBDSV1 SAVING "FLOW FRONT FACE " ON UNIT  53 AT TIME STEP 23, STRESS PERIOD   3
1
              HEAD IN LAYER   1 AT END OF TIME STEP  23 IN STRESS PERIOD    3
  ---------------------------------------------------------------------------

            1           2           3           4           5           6           7           8           9          10
 ........................................................................................................................
   1    9.998       9.747       9.426       8.962       8.282       7.318       6.011       4.335       2.311      2.3418E-02
   2    9.998       9.747       9.424       8.956       8.273       7.312       6.008       4.334       2.311      2.3416E-02
   3    9.997       9.744       9.416       8.935       8.236       7.291       6.000       4.332       2.310      2.3410E-02
   4    9.997       9.740       9.398       8.881       8.111       7.235       5.982       4.327       2.309      2.3399E-02
   5    9.997       9.736       9.378       8.792       7.711       7.144       5.962       4.322       2.308      2.3390E-02
   6    9.997       9.740       9.398       8.881       8.111       7.235       5.982       4.327       2.309      2.3399E-02
   7    9.997       9.744       9.416       8.935       8.236       7.291       6.000       4.332       2.310      2.3410E-02
   8    9.998       9.747       9.424       8.956       8.273       7.312       6.008       4.334       2.311      2.3416E-02
   9    9.998       9.748       9.427       8.963       8.283       7.318       6.011       4.335       2.311      2.3418E-02
  10    9.998       9.748       9.427       8.964       8.285       7.320       6.012       4.335       2.311      2.3419E-02

 HEAD WILL BE SAVED ON UNIT   51 AT END OF TIME STEP   23, STRESS PERIOD    3

 DRAWDOWN WILL BE SAVED ON UNIT   52 AT END OF TIME STEP   23, STRESS PERIOD    3
1
  VOLUMETRIC BUDGET FOR ENTIRE MODEL AT END OF TIME STEP   23, STRESS PERIOD   3
  ------------------------------------------------------------------------------

     CUMULATIVE VOLUMES      L**3       RATES FOR THIS TIME STEP      L**3/T
     ------------------                 ------------------------

           IN:                                      IN:
           ---                                      ---
             STORAGE =      338026.0312               STORAGE =        1119.1350
       CONSTANT HEAD =           0.0000         CONSTANT HEAD =           0.0000
               WELLS =           0.0000                 WELLS =           0.0000
     HEAD DEP BOUNDS =        5248.5361       HEAD DEP BOUNDS =         151.3351

            TOTAL IN =      343274.5625              TOTAL IN =        1270.4702

          OUT:                                     OUT:
          ----                                     ----
             STORAGE =           0.0000               STORAGE =           0.0000
       CONSTANT HEAD =           0.0000         CONSTANT HEAD =           0.0000
               WELLS =        2300.0000                 WELLS =         100.0000
     HEAD DEP BOUNDS =      340974.5312       HEAD DEP BOUNDS =        1170.4662

           TOTAL OUT =      343274.5312             TOTAL OUT =        1270.4662

            IN - OUT =       3.1250E-02              IN - OUT =       4.0283E-03

 PERCENT DISCREPANCY =           0.00     PERCENT DISCREPANCY =           0.00






         TIME SUMMARY AT END OF TIME STEP   23 IN STRESS PERIOD    3
                    SECONDS     MINUTES      HOURS       DAYS        YEARS
                    -----------------------------------------------------------
   TIME STEP LENGTH  86400.      1440.0      24.000      1.0000     2.73785E-03
 STRESS PERIOD TIME 1.98720E+06  33120.      552.00      23.000     6.29706E-02
         TOTAL TIME 1.07136E+07 1.78560E+05  2976.0      124.00     0.33949    
1
 
 SOLVING FOR HEAD 

 OUTPUT CONTROL FOR STRESS PERIOD    3   TIME STEP   24
    SAVE HEAD FOR ALL LAYERS
    SAVE DRAWDOWN FOR ALL LAYERS
    SAVE BUDGET
    PRINT HEAD FOR ALL LAYERS
    PRINT BUDGET
 UBDSV1 SAVING "         STORAGE" ON UNIT  53 AT TIME STEP 24, STRESS PERIOD   3
 UBDSV2 SAVING "   CONSTANT HEAD" ON UNIT  53 AT TIME STEP 24, STRESS PERIOD   3
 UBDSV1 SAVING "FLOW RIGHT FACE " ON UNIT  53 AT TIME STEP 24, STRESS PERIOD   3
 UBDSV1 SAVING "FLOW FRONT FACE " ON UNIT  53 AT TIME STEP 24, STRESS PERIOD   3
1
              HEAD IN LAYER   1 AT END OF TIME STEP  24 IN STRESS PERIOD    3
  ---------------------------------------------------------------------------

            1           2           3           4           5           6           7           8           9          10
 ........................................................................................................................
   1    9.997       9.743       9.418       8.949       8.266       7.299       5.992       4.320       2.302      2.3324E-02
   2    9.997       9.742       9.415       8.943       8.256       7.292       5.990       4.319       2.302      2.3322E-02
   3    9.997       9.740       9.406       8.921       8.217       7.270       5.981       4.316       2.301      2.3315E-02
   4    9.997       9.735       9.388       8.865       8.090       7.213       5.962       4.311       2.300      2.3303E-02
   5    9.997       9.730       9.367       8.774       7.688       7.120       5.941       4.306       2.299      2.3293E-02
   6    9.997       9.735       9.388       8.865       8.090       7.213       5.962       4.311       2.300      2.3303E-02
   7    9.997       9.740       9.406       8.921       8.217       7.270       5.981       4.316       2.301      2.3315E-02
   8    9.997       9.742       9.415       8.943       8.256       7.293       5.990       4.319       2.302      2.3322E-02
   9    9.997       9.743       9.418       8.950       8.266       7.300       5.993       4.320       2.302      2.3324E-02
  10    9.997       9.744       9.419       8.952       8.269       7.301       5.994       4.320       2.302      2.3325E-02

 HEAD WILL BE SAVED ON UNIT   51 AT END OF TIME STEP   24, STRESS PERIOD    3

 DRAWDOWN WILL BE SAVED ON UNIT   52 AT END OF TIME STEP   24, STRESS PERIOD    3
1
  VOLUMETRIC BUDGET FOR ENTIRE MODEL AT END OF TIME STEP   24, STRESS PERIOD   3
  ------------------------------------------------------------------------------

     CUMULATIVE VOLUMES      L**3       RATES FOR THIS TIME STEP      L**3/T
     ------------------                 ------------------------

           IN:                                      IN:
           ---                                      ---
             STORAGE =      339137.7500               STORAGE =        1111.7188
       CONSTANT HEAD =           0.0000         CONSTANT HEAD =           0.0000
               WELLS =           0.0000                 WELLS =           0.0000
     HEAD DEP BOUNDS =        5402.5391       HEAD DEP BOUNDS =         154.0028

            TOTAL IN =      344540.2812              TOTAL IN =        1265.7216

          OUT:                                     OUT:
          ----                                     ----
             STORAGE =           0.0000               STORAGE =           0.0000
       CONSTANT HEAD =           0.0000         CONSTANT HEAD =           0.0000
               WELLS =        2400.0000                 WELLS =         100.0000
     HEAD DEP BOUNDS =      342140.2812       HEAD DEP BOUNDS =        1165.7369

           TOTAL OUT =      344540.2812             TOTAL OUT =        1265.7369

            IN - OUT =           0.0000              IN - OUT =      -1.5381E-02

 PERCENT DISCREPANCY =           0.00     PERCENT DISCREPANCY =          -0.00






         TIME SUMMARY AT END OF TIME STEP   24 IN STRESS PERIOD    3
                    SECONDS     MINUTES      HOURS       DAYS        YEARS
                    -----------------------------------------------------------
   TIME STEP LENGTH  86400.      1440.0      24.000      1.0000     2.73785E-03
 STRESS PERIOD TIME 2.07360E+06  34560.      576.00      24.000     6.57084E-02
         TOTAL TIME 1.08000E+07 1.80000E+05  3000.0      125.00     0.34223    
1
 
 SOLVING FOR HEAD 

 OUTPUT CONTROL FOR STRESS PERIOD    3   TIME STEP   25
    SAVE HEAD FOR ALL LAYERS
    SAVE DRAWDOWN FOR ALL LAYERS
    SAVE BUDGET
    PRINT HEAD FOR ALL LAYERS
    PRINT BUDGET
 UBDSV1 SAVING "         STORAGE" ON UNIT  53 AT TIME STEP 25, STRESS PERIOD   3
 UBDSV2 SAVING "   CONSTANT HEAD" ON UNIT  53 AT TIME STEP 25, STRESS PERIOD   3
 UBDSV1 SAVING "FLOW RIGHT FACE " ON UNIT  53 AT TIME STEP 25, STRESS PERIOD   3
 UBDSV1 SAVING "FLOW FRONT FACE " ON UNIT  53 AT TIME STEP 25, STRESS PERIOD   3
1
              HEAD IN LAYER   1 AT END OF TIME STEP  25 IN STRESS PERIOD    3
  ---------------------------------------------------------------------------

            1           2           3           4           5           6           7           8           9          10
 ........................................................................................................................
   1    9.997       9.739       9.409       8.937       8.249       7.281       5.974       4.304       2.293      2.3232E-02
   2    9.997       9.738       9.406       8.930       8.239       7.274       5.971       4.303       2.293      2.3229E-02
   3    9.997       9.735       9.397       8.906       8.199       7.250       5.962       4.300       2.292      2.3221E-02
   4    9.997       9.730       9.377       8.848       8.069       7.191       5.942       4.295       2.291      2.3208E-02
   5    9.997       9.725       9.356       8.757       7.666       7.097       5.920       4.290       2.290      2.3198E-02
   6    9.997       9.730       9.377       8.848       8.069       7.191       5.942       4.295       2.291      2.3208E-02
   7    9.997       9.735       9.397       8.906       8.199       7.250       5.962       4.300       2.292      2.3221E-02
   8    9.997       9.738       9.406       8.930       8.239       7.274       5.971       4.303       2.293      2.3229E-02
   9    9.997       9.739       9.410       8.937       8.250       7.281       5.975       4.305       2.293      2.3232E-02
  10    9.997       9.739       9.411       8.939       8.253       7.283       5.975       4.305       2.293      2.3233E-02

 HEAD WILL BE SAVED ON UNIT   51 AT END OF TIME STEP   25, STRESS PERIOD    3

 DRAWDOWN WILL BE SAVED ON UNIT   52 AT END OF TIME STEP   25, STRESS PERIOD    3
1
  VOLUMETRIC BUDGET FOR ENTIRE MODEL AT END OF TIME STEP   25, STRESS PERIOD   3
  ------------------------------------------------------------------------------

     CUMULATIVE VOLUMES      L**3       RATES FOR THIS TIME STEP      L**3/T
     ------------------                 ------------------------

           IN:                                      IN:
           ---                                      ---
             STORAGE =      340242.1250               STORAGE =        1104.3635
       CONSTANT HEAD =           0.0000         CONSTANT HEAD =           0.0000
               WELLS =           0.0000                 WELLS =           0.0000
     HEAD DEP BOUNDS =        5559.2363       HEAD DEP BOUNDS =         156.6975

            TOTAL IN =      345801.3750              TOTAL IN =        1261.0610

          OUT:                                     OUT:
          ----                                     ----
             STORAGE =           0.0000               STORAGE =           0.0000
       CONSTANT HEAD =           0.0000         CONSTANT HEAD =           0.0000
               WELLS =        2500.0000                 WELLS =         100.0000
     HEAD DEP BOUNDS =      343301.3438       HEAD DEP BOUNDS =        1161.0594

           TOTAL OUT =      345801.3438             TOTAL OUT =        1261.0594

            IN - OUT =       3.1250E-02              IN - OUT =       1.5869E-03

 PERCENT DISCREPANCY =           0.00     PERCENT DISCREPANCY =           0.00






         TIME SUMMARY AT END OF TIME STEP   25 IN STRESS PERIOD    3
                    SECONDS     MINUTES      HOURS       DAYS        YEARS
                    -----------------------------------------------------------
   TIME STEP LENGTH  86400.      1440.0      24.000      1.0000     2.73785E-03
 STRESS PERIOD TIME 2.16000E+06  36000.      600.00      25.000     6.84463E-02
         TOTAL TIME 1.08864E+07 1.81440E+05  3024.0      126.00     0.34497    
1
 
 SOLVING FOR HEAD 

 OUTPUT CONTROL FOR STRESS PERIOD    3   TIME STEP   26
    SAVE HEAD FOR ALL LAYERS
    SAVE DRAWDOWN FOR ALL LAYERS
    SAVE BUDGET
    PRINT HEAD FOR ALL LAYERS
    PRINT BUDGET
 UBDSV1 SAVING "         STORAGE" ON UNIT  53 AT TIME STEP 26, STRESS PERIOD   3
 UBDSV2 SAVING "   CONSTANT HEAD" ON UNIT  53 AT TIME STEP 26, STRESS PERIOD   3
 UBDSV1 SAVING "FLOW RIGHT FACE " ON UNIT  53 AT TIME STEP 26, STRESS PERIOD   3
 UBDSV1 SAVING "FLOW FRONT FACE " ON UNIT  53 AT TIME STEP 26, STRESS PERIOD   3
1
              HEAD IN LAYER   1 AT END OF TIME STEP  26 IN STRESS PERIOD    3
  ---------------------------------------------------------------------------

            1           2           3           4           5           6           7           8           9          10
 ........................................................................................................................
   1    9.997       9.735       9.401       8.924       8.233       7.262       5.956       4.289       2.284      2.3140E-02
   2    9.997       9.734       9.397       8.916       8.222       7.255       5.953       4.288       2.284      2.3137E-02
   3    9.997       9.731       9.387       8.892       8.180       7.230       5.943       4.285       2.283      2.3128E-02
   4    9.997       9.725       9.367       8.832       8.049       7.169       5.922       4.279       2.282      2.3114E-02
   5    9.997       9.720       9.345       8.740       7.644       7.074       5.899       4.274       2.281      2.3103E-02
   6    9.997       9.725       9.367       8.832       8.049       7.169       5.922       4.279       2.282      2.3114E-02
   7    9.997       9.731       9.387       8.892       8.180       7.230       5.943       4.285       2.283      2.3128E-02
   8    9.997       9.734       9.397       8.917       8.222       7.255       5.953       4.288       2.284      2.3137E-02
   9    9.997       9.735       9.401       8.925       8.234       7.263       5.956       4.290       2.284      2.3141E-02
  10    9.997       9.735       9.402       8.927       8.237       7.265       5.957       4.290       2.284      2.3142E-02

 HEAD WILL BE SAVED ON UNIT   51 AT END OF TIME STEP   26, STRESS PERIOD    3

 DRAWDOWN WILL BE SAVED ON UNIT   52 AT END OF TIME STEP   26, STRESS PERIOD    3
1
  VOLUMETRIC BUDGET FOR ENTIRE MODEL AT END OF TIME STEP   26, STRESS PERIOD   3
  ------------------------------------------------------------------------------

     CUMULATIVE VOLUMES      L**3       RATES FOR THIS TIME STEP      L**3/T
     ------------------                 ------------------------

           IN:                                      IN:
           ---                                      ---
             STORAGE =      341339.1562               STORAGE =        1097.0310
       CONSTANT HEAD =           0.0000         CONSTANT HEAD =           0.0000
               WELLS =           0.0000                 WELLS =           0.0000
     HEAD DEP BOUNDS =        5718.6216       HEAD DEP BOUNDS =         159.3853

            TOTAL IN =      347057.7812              TOTAL IN =        1256.4164

          OUT:                                     OUT:
          ----                                     ----
             STORAGE =           0.0000               STORAGE =           0.0000
       CONSTANT HEAD =           0.0000         CONSTANT HEAD =           0.0000
               WELLS =        2600.0000                 WELLS =         100.0000
     HEAD DEP BOUNDS =      344457.7812       HEAD DEP BOUNDS =        1156.4271

           TOTAL OUT =      347057.7812             TOTAL OUT =        1256.4271

            IN - OUT =           0.0000              IN - OUT =      -1.0742E-02

 PERCENT DISCREPANCY =           0.00     PERCENT DISCREPANCY =          -0.00






         TIME SUMMARY AT END OF TIME STEP   26 IN STRESS PERIOD    3
                    SECONDS     MINUTES      HOURS       DAYS        YEARS
                    -----------------------------------------------------------
   TIME STEP LENGTH  86400.      1440.0      24.000      1.0000     2.73785E-03
 STRESS PERIOD TIME 2.24640E+06  37440.      624.00      26.000     7.11841E-02
         TOTAL TIME 1.09728E+07 1.82880E+05  3048.0      127.00     0.34771    
1
 
 SOLVING FOR HEAD 

 OUTPUT CONTROL FOR STRESS PERIOD    3   TIME STEP   27
    SAVE HEAD FOR ALL LAYERS
    SAVE DRAWDOWN FOR ALL LAYERS
    SAVE BUDGET
    PRINT HEAD FOR ALL LAYERS
    PRINT BUDGET
 UBDSV1 SAVING "         STORAGE" ON UNIT  53 AT TIME STEP 27, STRESS PERIOD   3
 UBDSV2 SAVING "   CONSTANT HEAD" ON UNIT  53 AT TIME STEP 27, STRESS PERIOD   3
 UBDSV1 SAVING "FLOW RIGHT FACE " ON UNIT  53 AT TIME STEP 27, STRESS PERIOD   3
 UBDSV1 SAVING "FLOW FRONT FACE " ON UNIT  53 AT TIME STEP 27, STRESS PERIOD   3
1
              HEAD IN LAYER   1 AT END OF TIME STEP  27 IN STRESS PERIOD    3
  ---------------------------------------------------------------------------

            1           2           3           4           5           6           7           8           9          10
 ........................................................................................................................
   1    9.997       9.730       9.392       8.911       8.217       7.244       5.938       4.275       2.276      2.3050E-02
   2    9.997       9.729       9.389       8.903       8.205       7.236       5.934       4.273       2.275      2.3046E-02
   3    9.997       9.726       9.378       8.878       8.162       7.210       5.924       4.270       2.274      2.3037E-02
   4    9.997       9.720       9.357       8.816       8.028       7.148       5.902       4.263       2.273      2.3021E-02
   5    9.997       9.715       9.335       8.723       7.622       7.052       5.879       4.258       2.272      2.3009E-02
   6    9.997       9.720       9.357       8.816       8.028       7.148       5.902       4.263       2.273      2.3021E-02
   7    9.997       9.726       9.378       8.878       8.162       7.210       5.924       4.270       2.274      2.3037E-02
   8    9.997       9.729       9.389       8.903       8.205       7.236       5.935       4.273       2.275      2.3046E-02
   9    9.997       9.731       9.393       8.912       8.218       7.245       5.939       4.275       2.276      2.3050E-02
  10    9.997       9.731       9.394       8.914       8.221       7.247       5.940       4.275       2.276      2.3052E-02

 HEAD WILL BE SAVED ON UNIT   51 AT END OF TIME STEP   27, STRESS PERIOD    3

 DRAWDOWN WILL BE SAVED ON UNIT   52 AT END OF TIME STEP   27, STRESS PERIOD    3
1
  VOLUMETRIC BUDGET FOR ENTIRE MODEL AT END OF TIME STEP   27, STRESS PERIOD   3
  ------------------------------------------------------------------------------

     CUMULATIVE VOLUMES      L**3       RATES FOR THIS TIME STEP      L**3/T
     ------------------                 ------------------------

           IN:                                      IN:
           ---                                      ---
             STORAGE =      342428.9062               STORAGE =        1089.7451
       CONSTANT HEAD =           0.0000         CONSTANT HEAD =           0.0000
               WELLS =           0.0000                 WELLS =           0.0000
     HEAD DEP BOUNDS =        5880.7271       HEAD DEP BOUNDS =         162.1056

            TOTAL IN =      348309.6250              TOTAL IN =        1251.8507

          OUT:                                     OUT:
          ----                                     ----
             STORAGE =           0.0000               STORAGE =           0.0000
       CONSTANT HEAD =           0.0000         CONSTANT HEAD =           0.0000
               WELLS =        2700.0000                 WELLS =         100.0000
     HEAD DEP BOUNDS =      345609.6250       HEAD DEP BOUNDS =        1151.8463

           TOTAL OUT =      348309.6250             TOTAL OUT =        1251.8463

            IN - OUT =           0.0000              IN - OUT =       4.3945E-03

 PERCENT DISCREPANCY =           0.00     PERCENT DISCREPANCY =           0.00






         TIME SUMMARY AT END OF TIME STEP   27 IN STRESS PERIOD    3
                    SECONDS     MINUTES      HOURS       DAYS        YEARS
                    -----------------------------------------------------------
   TIME STEP LENGTH  86400.      1440.0      24.000      1.0000     2.73785E-03
 STRESS PERIOD TIME 2.33280E+06  38880.      648.00      27.000     7.39220E-02
         TOTAL TIME 1.10592E+07 1.84320E+05  3072.0      128.00     0.35044    
1
 
 SOLVING FOR HEAD 

 OUTPUT CONTROL FOR STRESS PERIOD    3   TIME STEP   28
    SAVE HEAD FOR ALL LAYERS
    SAVE DRAWDOWN FOR ALL LAYERS
    SAVE BUDGET
    PRINT HEAD FOR ALL LAYERS
    PRINT BUDGET
 UBDSV1 SAVING "         STORAGE" ON UNIT  53 AT TIME STEP 28, STRESS PERIOD   3
 UBDSV2 SAVING "   CONSTANT HEAD" ON UNIT  53 AT TIME STEP 28, STRESS PERIOD   3
 UBDSV1 SAVING "FLOW RIGHT FACE " ON UNIT  53 AT TIME STEP 28, STRESS PERIOD   3
 UBDSV1 SAVING "FLOW FRONT FACE " ON UNIT  53 AT TIME STEP 28, STRESS PERIOD   3
1
              HEAD IN LAYER   1 AT END OF TIME STEP  28 IN STRESS PERIOD    3
  ---------------------------------------------------------------------------

            1           2           3           4           5           6           7           8           9          10
 ........................................................................................................................
   1    9.997       9.726       9.384       8.899       8.201       7.226       5.920       4.260       2.267      2.2961E-02
   2    9.997       9.725       9.380       8.890       8.188       7.217       5.916       4.258       2.267      2.2957E-02
   3    9.997       9.721       9.368       8.863       8.144       7.190       5.905       4.254       2.266      2.2946E-02
   4    9.997       9.715       9.346       8.800       8.008       7.126       5.882       4.248       2.264      2.2929E-02
   5    9.997       9.710       9.324       8.706       7.601       7.029       5.858       4.242       2.263      2.2916E-02
   6    9.997       9.715       9.346       8.800       8.008       7.126       5.882       4.248       2.264      2.2929E-02
   7    9.997       9.721       9.368       8.863       8.144       7.190       5.905       4.255       2.266      2.2946E-02
   8    9.997       9.725       9.380       8.890       8.188       7.218       5.916       4.258       2.267      2.2957E-02
   9    9.997       9.726       9.384       8.900       8.202       7.227       5.921       4.260       2.267      2.2961E-02
  10    9.997       9.727       9.386       8.902       8.205       7.229       5.922       4.261       2.267      2.2963E-02

 HEAD WILL BE SAVED ON UNIT   51 AT END OF TIME STEP   28, STRESS PERIOD    3

 DRAWDOWN WILL BE SAVED ON UNIT   52 AT END OF TIME STEP   28, STRESS PERIOD    3
1
  VOLUMETRIC BUDGET FOR ENTIRE MODEL AT END OF TIME STEP   28, STRESS PERIOD   3
  ------------------------------------------------------------------------------

     CUMULATIVE VOLUMES      L**3       RATES FOR THIS TIME STEP      L**3/T
     ------------------                 ------------------------

           IN:                                      IN:
           ---                                      ---
             STORAGE =      343511.4062               STORAGE =        1082.5007
       CONSTANT HEAD =           0.0000         CONSTANT HEAD =           0.0000
               WELLS =           0.0000                 WELLS =           0.0000
     HEAD DEP BOUNDS =        6045.5376       HEAD DEP BOUNDS =         164.8107

            TOTAL IN =      349556.9375              TOTAL IN =        1247.3114

          OUT:                                     OUT:
          ----                                     ----
             STORAGE =           0.0000               STORAGE =           0.0000
       CONSTANT HEAD =           0.0000         CONSTANT HEAD =           0.0000
               WELLS =        2800.0000                 WELLS =         100.0000
     HEAD DEP BOUNDS =      346756.9375       HEAD DEP BOUNDS =        1147.3164

           TOTAL OUT =      349556.9375             TOTAL OUT =        1247.3164

            IN - OUT =           0.0000              IN - OUT =      -5.0049E-03

 PERCENT DISCREPANCY =           0.00     PERCENT DISCREPANCY =          -0.00






         TIME SUMMARY AT END OF TIME STEP   28 IN STRESS PERIOD    3
                    SECONDS     MINUTES      HOURS       DAYS        YEARS
                    -----------------------------------------------------------
   TIME STEP LENGTH  86400.      1440.0      24.000      1.0000     2.73785E-03
 STRESS PERIOD TIME 2.41920E+06  40320.      672.00      28.000     7.66598E-02
         TOTAL TIME 1.11456E+07 1.85760E+05  3096.0      129.00     0.35318    
1
 
 SOLVING FOR HEAD 

 OUTPUT CONTROL FOR STRESS PERIOD    3   TIME STEP   29
    SAVE HEAD FOR ALL LAYERS
    SAVE DRAWDOWN FOR ALL LAYERS
    SAVE BUDGET
    PRINT HEAD FOR ALL LAYERS
    PRINT BUDGET
 UBDSV1 SAVING "         STORAGE" ON UNIT  53 AT TIME STEP 29, STRESS PERIOD   3
 UBDSV2 SAVING "   CONSTANT HEAD" ON UNIT  53 AT TIME STEP 29, STRESS PERIOD   3
 UBDSV1 SAVING "FLOW RIGHT FACE " ON UNIT  53 AT TIME STEP 29, STRESS PERIOD   3
 UBDSV1 SAVING "FLOW FRONT FACE " ON UNIT  53 AT TIME STEP 29, STRESS PERIOD   3
1
              HEAD IN LAYER   1 AT END OF TIME STEP  29 IN STRESS PERIOD    3
  ---------------------------------------------------------------------------

            1           2           3           4           5           6           7           8           9          10
 ........................................................................................................................
   1    9.997       9.722       9.375       8.886       8.185       7.208       5.903       4.245       2.258      2.2872E-02
   2    9.997       9.720       9.371       8.877       8.171       7.199       5.898       4.244       2.258      2.2868E-02
   3    9.997       9.717       9.359       8.849       8.126       7.171       5.886       4.239       2.257      2.2856E-02
   4    9.997       9.710       9.336       8.785       7.988       7.105       5.862       4.232       2.255      2.2837E-02
   5    9.997       9.705       9.313       8.689       7.580       7.007       5.838       4.226       2.254      2.2824E-02
   6    9.997       9.710       9.336       8.785       7.988       7.105       5.862       4.232       2.255      2.2837E-02
   7    9.997       9.717       9.359       8.849       8.126       7.171       5.886       4.239       2.257      2.2856E-02
   8    9.997       9.721       9.371       8.877       8.172       7.199       5.898       4.244       2.258      2.2868E-02
   9    9.997       9.722       9.376       8.887       8.186       7.209       5.903       4.245       2.258      2.2873E-02
  10    9.997       9.723       9.377       8.890       8.190       7.212       5.905       4.246       2.259      2.2875E-02

 HEAD WILL BE SAVED ON UNIT   51 AT END OF TIME STEP   29, STRESS PERIOD    3

 DRAWDOWN WILL BE SAVED ON UNIT   52 AT END OF TIME STEP   29, STRESS PERIOD    3
1
  VOLUMETRIC BUDGET FOR ENTIRE MODEL AT END OF TIME STEP   29, STRESS PERIOD   3
  ------------------------------------------------------------------------------

     CUMULATIVE VOLUMES      L**3       RATES FOR THIS TIME STEP      L**3/T
     ------------------                 ------------------------

           IN:                                      IN:
           ---                                      ---
             STORAGE =      344586.7188               STORAGE =        1075.3013
       CONSTANT HEAD =           0.0000         CONSTANT HEAD =           0.0000
               WELLS =           0.0000                 WELLS =           0.0000
     HEAD DEP BOUNDS =        6213.0640       HEAD DEP BOUNDS =         167.5266

            TOTAL IN =      350799.7812              TOTAL IN =        1242.8279

          OUT:                                     OUT:
          ----                                     ----
             STORAGE =           0.0000               STORAGE =           0.0000
       CONSTANT HEAD =           0.0000         CONSTANT HEAD =           0.0000
               WELLS =        2900.0000                 WELLS =         100.0000
     HEAD DEP BOUNDS =      347899.7812       HEAD DEP BOUNDS =        1142.8301

           TOTAL OUT =      350799.7812             TOTAL OUT =        1242.8301

            IN - OUT =           0.0000              IN - OUT =      -2.1973E-03

 PERCENT DISCREPANCY =           0.00     PERCENT DISCREPANCY =          -0.00






         TIME SUMMARY AT END OF TIME STEP   29 IN STRESS PERIOD    3
                    SECONDS     MINUTES      HOURS       DAYS        YEARS
                    -----------------------------------------------------------
   TIME STEP LENGTH  86400.      1440.0      24.000      1.0000     2.73785E-03
 STRESS PERIOD TIME 2.50560E+06  41760.      696.00      29.000     7.93977E-02
         TOTAL TIME 1.12320E+07 1.87200E+05  3120.0      130.00     0.35592    
1
 
 SOLVING FOR HEAD 

 OUTPUT CONTROL FOR STRESS PERIOD    3   TIME STEP   30
    SAVE HEAD FOR ALL LAYERS
    SAVE DRAWDOWN FOR ALL LAYERS
    SAVE BUDGET
    PRINT HEAD FOR ALL LAYERS
    PRINT BUDGET
 UBDSV1 SAVING "         STORAGE" ON UNIT  53 AT TIME STEP 30, STRESS PERIOD   3
 UBDSV2 SAVING "   CONSTANT HEAD" ON UNIT  53 AT TIME STEP 30, STRESS PERIOD   3
 UBDSV1 SAVING "FLOW RIGHT FACE " ON UNIT  53 AT TIME STEP 30, STRESS PERIOD   3
 UBDSV1 SAVING "FLOW FRONT FACE " ON UNIT  53 AT TIME STEP 30, STRESS PERIOD   3
1
              HEAD IN LAYER   1 AT END OF TIME STEP  30 IN STRESS PERIOD    3
  ---------------------------------------------------------------------------

            1           2           3           4           5           6           7           8           9          10
 ........................................................................................................................
   1    9.997       9.718       9.367       8.873       8.169       7.190       5.885       4.231       2.250      2.2785E-02
   2    9.997       9.716       9.362       8.864       8.155       7.180       5.880       4.229       2.249      2.2780E-02
   3    9.997       9.712       9.349       8.835       8.108       7.151       5.868       4.225       2.248      2.2767E-02
   4    9.997       9.705       9.326       8.769       7.968       7.084       5.843       4.217       2.246      2.2747E-02
   5    9.997       9.700       9.302       8.673       7.559       6.986       5.819       4.211       2.245      2.2733E-02
   6    9.997       9.705       9.326       8.769       7.968       7.084       5.843       4.217       2.246      2.2747E-02
   7    9.997       9.712       9.349       8.835       8.108       7.151       5.868       4.225       2.248      2.2767E-02
   8    9.997       9.716       9.362       8.864       8.155       7.181       5.881       4.229       2.249      2.2780E-02
   9    9.997       9.718       9.367       8.874       8.170       7.191       5.886       4.231       2.250      2.2786E-02
  10    9.997       9.719       9.369       8.878       8.174       7.194       5.887       4.232       2.250      2.2788E-02

 HEAD WILL BE SAVED ON UNIT   51 AT END OF TIME STEP   30, STRESS PERIOD    3

 DRAWDOWN WILL BE SAVED ON UNIT   52 AT END OF TIME STEP   30, STRESS PERIOD    3
1
  VOLUMETRIC BUDGET FOR ENTIRE MODEL AT END OF TIME STEP   30, STRESS PERIOD   3
  ------------------------------------------------------------------------------

     CUMULATIVE VOLUMES      L**3       RATES FOR THIS TIME STEP      L**3/T
     ------------------                 ------------------------

           IN:                                      IN:
           ---                                      ---
             STORAGE =      345654.8750               STORAGE =        1068.1442
       CONSTANT HEAD =           0.0000         CONSTANT HEAD =           0.0000
               WELLS =           0.0000                 WELLS =           0.0000
     HEAD DEP BOUNDS =        6383.3032       HEAD DEP BOUNDS =         170.2392

            TOTAL IN =      352038.1875              TOTAL IN =        1238.3833

          OUT:                                     OUT:
          ----                                     ----
             STORAGE =           0.0000               STORAGE =           0.0000
       CONSTANT HEAD =           0.0000         CONSTANT HEAD =           0.0000
               WELLS =        3000.0000                 WELLS =         100.0000
     HEAD DEP BOUNDS =      349038.1562       HEAD DEP BOUNDS =        1138.3873

           TOTAL OUT =      352038.1562             TOTAL OUT =        1238.3873

            IN - OUT =       3.1250E-02              IN - OUT =      -4.0283E-03

 PERCENT DISCREPANCY =           0.00     PERCENT DISCREPANCY =          -0.00






         TIME SUMMARY AT END OF TIME STEP   30 IN STRESS PERIOD    3
                    SECONDS     MINUTES      HOURS       DAYS        YEARS
                    -----------------------------------------------------------
   TIME STEP LENGTH  86400.      1440.0      24.000      1.0000     2.73785E-03
 STRESS PERIOD TIME 2.59200E+06  43200.      720.00      30.000     8.21355E-02
         TOTAL TIME 1.13184E+07 1.88640E+05  3144.0      131.00     0.35866    
1
 
 SOLVING FOR HEAD 

 OUTPUT CONTROL FOR STRESS PERIOD    3   TIME STEP   31
    SAVE HEAD FOR ALL LAYERS
    SAVE DRAWDOWN FOR ALL LAYERS
    SAVE BUDGET
    PRINT HEAD FOR ALL LAYERS
    PRINT BUDGET
 UBDSV1 SAVING "         STORAGE" ON UNIT  53 AT TIME STEP 31, STRESS PERIOD   3
 UBDSV2 SAVING "   CONSTANT HEAD" ON UNIT  53 AT TIME STEP 31, STRESS PERIOD   3
 UBDSV1 SAVING "FLOW RIGHT FACE " ON UNIT  53 AT TIME STEP 31, STRESS PERIOD   3
 UBDSV1 SAVING "FLOW FRONT FACE " ON UNIT  53 AT TIME STEP 31, STRESS PERIOD   3
1
              HEAD IN LAYER   1 AT END OF TIME STEP  31 IN STRESS PERIOD    3
  ---------------------------------------------------------------------------

            1           2           3           4           5           6           7           8           9          10
 ........................................................................................................................
   1    9.997       9.713       9.358       8.861       8.153       7.172       5.868       4.216       2.242      2.2698E-02
   2    9.997       9.712       9.353       8.851       8.138       7.162       5.863       4.215       2.241      2.2692E-02
   3    9.997       9.707       9.340       8.820       8.090       7.132       5.849       4.210       2.240      2.2678E-02
   4    9.997       9.700       9.315       8.753       7.949       7.063       5.824       4.202       2.238      2.2657E-02
   5    9.997       9.694       9.292       8.657       7.538       6.964       5.799       4.195       2.236      2.2642E-02
   6    9.997       9.700       9.315       8.753       7.949       7.063       5.824       4.202       2.238      2.2657E-02
   7    9.997       9.707       9.340       8.821       8.090       7.132       5.849       4.210       2.240      2.2679E-02
   8    9.997       9.712       9.353       8.851       8.139       7.162       5.863       4.215       2.241      2.2693E-02
   9    9.997       9.714       9.359       8.862       8.154       7.174       5.868       4.217       2.242      2.2699E-02
  10    9.997       9.714       9.361       8.865       8.159       7.177       5.870       4.217       2.242      2.2702E-02

 HEAD WILL BE SAVED ON UNIT   51 AT END OF TIME STEP   31, STRESS PERIOD    3

 DRAWDOWN WILL BE SAVED ON UNIT   52 AT END OF TIME STEP   31, STRESS PERIOD    3
1
  VOLUMETRIC BUDGET FOR ENTIRE MODEL AT END OF TIME STEP   31, STRESS PERIOD   3
  ------------------------------------------------------------------------------

     CUMULATIVE VOLUMES      L**3       RATES FOR THIS TIME STEP      L**3/T
     ------------------                 ------------------------

           IN:                                      IN:
           ---                                      ---
             STORAGE =      346715.9062               STORAGE =        1061.0266
       CONSTANT HEAD =           0.0000         CONSTANT HEAD =           0.0000
               WELLS =           0.0000                 WELLS =           0.0000
     HEAD DEP BOUNDS =        6556.2710       HEAD DEP BOUNDS =         172.9677

            TOTAL IN =      353272.1875              TOTAL IN =        1233.9943

          OUT:                                     OUT:
          ----                                     ----
             STORAGE =           0.0000               STORAGE =           0.0000
       CONSTANT HEAD =           0.0000         CONSTANT HEAD =           0.0000
               WELLS =        3100.0000                 WELLS =         100.0000
     HEAD DEP BOUNDS =      350172.1562       HEAD DEP BOUNDS =        1133.9907

           TOTAL OUT =      353272.1562             TOTAL OUT =        1233.9907

            IN - OUT =       3.1250E-02              IN - OUT =       3.5400E-03

 PERCENT DISCREPANCY =           0.00     PERCENT DISCREPANCY =           0.00






         TIME SUMMARY AT END OF TIME STEP   31 IN STRESS PERIOD    3
                    SECONDS     MINUTES      HOURS       DAYS        YEARS
                    -----------------------------------------------------------
   TIME STEP LENGTH  86400.      1440.0      24.000      1.0000     2.73785E-03
 STRESS PERIOD TIME 2.67840E+06  44640.      744.00      31.000     8.48734E-02
         TOTAL TIME 1.14048E+07 1.90080E+05  3168.0      132.00     0.36140    
1
 
 SOLVING FOR HEAD 

 OUTPUT CONTROL FOR STRESS PERIOD    3   TIME STEP   32
    SAVE HEAD FOR ALL LAYERS
    SAVE DRAWDOWN FOR ALL LAYERS
    SAVE BUDGET
    PRINT HEAD FOR ALL LAYERS
    PRINT BUDGET
 UBDSV1 SAVING "         STORAGE" ON UNIT  53 AT TIME STEP 32, STRESS PERIOD   3
 UBDSV2 SAVING "   CONSTANT HEAD" ON UNIT  53 AT TIME STEP 32, STRESS PERIOD   3
 UBDSV1 SAVING "FLOW RIGHT FACE " ON UNIT  53 AT TIME STEP 32, STRESS PERIOD   3
 UBDSV1 SAVING "FLOW FRONT FACE " ON UNIT  53 AT TIME STEP 32, STRESS PERIOD   3
1
              HEAD IN LAYER   1 AT END OF TIME STEP  32 IN STRESS PERIOD    3
  ---------------------------------------------------------------------------

            1           2           3           4           5           6           7           8           9          10
 ........................................................................................................................
   1    9.997       9.709       9.350       8.848       8.137       7.155       5.850       4.202       2.233      2.2613E-02
   2    9.997       9.707       9.344       8.837       8.122       7.144       5.845       4.200       2.233      2.2606E-02
   3    9.997       9.703       9.330       8.806       8.072       7.112       5.831       4.195       2.231      2.2591E-02
   4    9.997       9.695       9.305       8.738       7.930       7.043       5.805       4.187       2.229      2.2568E-02
   5    9.997       9.689       9.281       8.641       7.518       6.943       5.779       4.180       2.227      2.2553E-02
   6    9.997       9.695       9.305       8.738       7.930       7.043       5.805       4.187       2.229      2.2568E-02
   7    9.997       9.703       9.330       8.806       8.072       7.112       5.831       4.195       2.231      2.2591E-02
   8    9.997       9.707       9.344       8.838       8.122       7.144       5.845       4.200       2.233      2.2607E-02
   9    9.997       9.709       9.350       8.849       8.139       7.156       5.851       4.203       2.233      2.2614E-02
  10    9.997       9.710       9.352       8.853       8.143       7.160       5.853       4.203       2.234      2.2616E-02

 HEAD WILL BE SAVED ON UNIT   51 AT END OF TIME STEP   32, STRESS PERIOD    3

 DRAWDOWN WILL BE SAVED ON UNIT   52 AT END OF TIME STEP   32, STRESS PERIOD    3
1
  VOLUMETRIC BUDGET FOR ENTIRE MODEL AT END OF TIME STEP   32, STRESS PERIOD   3
  ------------------------------------------------------------------------------

     CUMULATIVE VOLUMES      L**3       RATES FOR THIS TIME STEP      L**3/T
     ------------------                 ------------------------

           IN:                                      IN:
           ---                                      ---
             STORAGE =      347769.8438               STORAGE =        1053.9473
       CONSTANT HEAD =           0.0000         CONSTANT HEAD =           0.0000
               WELLS =           0.0000                 WELLS =           0.0000
     HEAD DEP BOUNDS =        6731.9624       HEAD DEP BOUNDS =         175.6914

            TOTAL IN =      354501.8125              TOTAL IN =        1229.6387

          OUT:                                     OUT:
          ----                                     ----
             STORAGE =           0.0000               STORAGE =           0.0000
       CONSTANT HEAD =           0.0000         CONSTANT HEAD =           0.0000
               WELLS =        3200.0000                 WELLS =         100.0000
     HEAD DEP BOUNDS =      351301.7812       HEAD DEP BOUNDS =        1129.6381

           TOTAL OUT =      354501.7812             TOTAL OUT =        1229.6381

            IN - OUT =       3.1250E-02              IN - OUT =       6.1035E-04

 PERCENT DISCREPANCY =           0.00     PERCENT DISCREPANCY =           0.00






         TIME SUMMARY AT END OF TIME STEP   32 IN STRESS PERIOD    3
                    SECONDS     MINUTES      HOURS       DAYS        YEARS
                    -----------------------------------------------------------
   TIME STEP LENGTH  86400.      1440.0      24.000      1.0000     2.73785E-03
 STRESS PERIOD TIME 2.76480E+06  46080.      768.00      32.000     8.76112E-02
         TOTAL TIME 1.14912E+07 1.91520E+05  3192.0      133.00     0.36413    
1
 
 SOLVING FOR HEAD 

 OUTPUT CONTROL FOR STRESS PERIOD    3   TIME STEP   33
    SAVE HEAD FOR ALL LAYERS
    SAVE DRAWDOWN FOR ALL LAYERS
    SAVE BUDGET
    PRINT HEAD FOR ALL LAYERS
    PRINT BUDGET
 UBDSV1 SAVING "         STORAGE" ON UNIT  53 AT TIME STEP 33, STRESS PERIOD   3
 UBDSV2 SAVING "   CONSTANT HEAD" ON UNIT  53 AT TIME STEP 33, STRESS PERIOD   3
 UBDSV1 SAVING "FLOW RIGHT FACE " ON UNIT  53 AT TIME STEP 33, STRESS PERIOD   3
 UBDSV1 SAVING "FLOW FRONT FACE " ON UNIT  53 AT TIME STEP 33, STRESS PERIOD   3
1
              HEAD IN LAYER   1 AT END OF TIME STEP  33 IN STRESS PERIOD    3
  ---------------------------------------------------------------------------

            1           2           3           4           5           6           7           8           9          10
 ........................................................................................................................
   1    9.997       9.705       9.341       8.836       8.121       7.137       5.833       4.188       2.225      2.2528E-02
   2    9.997       9.703       9.335       8.824       8.105       7.126       5.828       4.186       2.224      2.2521E-02
   3    9.997       9.698       9.321       8.792       8.054       7.093       5.813       4.181       2.223      2.2505E-02
   4    9.997       9.690       9.295       8.723       7.910       7.022       5.786       4.172       2.220      2.2480E-02
   5    9.997       9.684       9.271       8.625       7.498       6.922       5.760       4.165       2.219      2.2464E-02
   6    9.997       9.690       9.295       8.723       7.910       7.022       5.786       4.172       2.220      2.2480E-02
   7    9.997       9.698       9.321       8.792       8.055       7.093       5.813       4.181       2.223      2.2505E-02
   8    9.997       9.703       9.336       8.825       8.106       7.126       5.828       4.186       2.225      2.2521E-02
   9    9.997       9.705       9.342       8.837       8.123       7.139       5.834       4.189       2.225      2.2529E-02
  10    9.997       9.706       9.344       8.841       8.128       7.142       5.836       4.189       2.226      2.2532E-02

 HEAD WILL BE SAVED ON UNIT   51 AT END OF TIME STEP   33, STRESS PERIOD    3

 DRAWDOWN WILL BE SAVED ON UNIT   52 AT END OF TIME STEP   33, STRESS PERIOD    3
1
  VOLUMETRIC BUDGET FOR ENTIRE MODEL AT END OF TIME STEP   33, STRESS PERIOD   3
  ------------------------------------------------------------------------------

     CUMULATIVE VOLUMES      L**3       RATES FOR THIS TIME STEP      L**3/T
     ------------------                 ------------------------

           IN:                                      IN:
           ---                                      ---
             STORAGE =      348816.7500               STORAGE =        1046.9067
       CONSTANT HEAD =           0.0000         CONSTANT HEAD =           0.0000
               WELLS =           0.0000                 WELLS =           0.0000
     HEAD DEP BOUNDS =        6910.3721       HEAD DEP BOUNDS =         178.4098

            TOTAL IN =      355727.1250              TOTAL IN =        1225.3165

          OUT:                                     OUT:
          ----                                     ----
             STORAGE =           0.0000               STORAGE =           0.0000
       CONSTANT HEAD =           0.0000         CONSTANT HEAD =           0.0000
               WELLS =        3300.0000                 WELLS =         100.0000
     HEAD DEP BOUNDS =      352427.1250       HEAD DEP BOUNDS =        1125.3286

           TOTAL OUT =      355727.1250             TOTAL OUT =        1225.3286

            IN - OUT =           0.0000              IN - OUT =      -1.2085E-02

 PERCENT DISCREPANCY =           0.00     PERCENT DISCREPANCY =          -0.00






         TIME SUMMARY AT END OF TIME STEP   33 IN STRESS PERIOD    3
                    SECONDS     MINUTES      HOURS       DAYS        YEARS
                    -----------------------------------------------------------
   TIME STEP LENGTH  86400.      1440.0      24.000      1.0000     2.73785E-03
 STRESS PERIOD TIME 2.85120E+06  47520.      792.00      33.000     9.03491E-02
         TOTAL TIME 1.15776E+07 1.92960E+05  3216.0      134.00     0.36687    
1
 
 SOLVING FOR HEAD 

 OUTPUT CONTROL FOR STRESS PERIOD    3   TIME STEP   34
    SAVE HEAD FOR ALL LAYERS
    SAVE DRAWDOWN FOR ALL LAYERS
    SAVE BUDGET
    PRINT HEAD FOR ALL LAYERS
    PRINT BUDGET
 UBDSV1 SAVING "         STORAGE" ON UNIT  53 AT TIME STEP 34, STRESS PERIOD   3
 UBDSV2 SAVING "   CONSTANT HEAD" ON UNIT  53 AT TIME STEP 34, STRESS PERIOD   3
 UBDSV1 SAVING "FLOW RIGHT FACE " ON UNIT  53 AT TIME STEP 34, STRESS PERIOD   3
 UBDSV1 SAVING "FLOW FRONT FACE " ON UNIT  53 AT TIME STEP 34, STRESS PERIOD   3
1
              HEAD IN LAYER   1 AT END OF TIME STEP  34 IN STRESS PERIOD    3
  ---------------------------------------------------------------------------

            1           2           3           4           5           6           7           8           9          10
 ........................................................................................................................
   1    9.997       9.701       9.332       8.823       8.105       7.120       5.816       4.174       2.217      2.2444E-02
   2    9.997       9.698       9.327       8.811       8.089       7.108       5.810       4.172       2.216      2.2437E-02
   3    9.997       9.693       9.311       8.778       8.037       7.074       5.795       4.166       2.215      2.2419E-02
   4    9.997       9.685       9.285       8.708       7.892       7.002       5.767       4.157       2.212      2.2393E-02
   5    9.997       9.679       9.260       8.609       7.478       6.901       5.741       4.150       2.210      2.2376E-02
   6    9.997       9.685       9.285       8.708       7.892       7.002       5.767       4.157       2.212      2.2393E-02
   7    9.997       9.693       9.312       8.778       8.037       7.074       5.795       4.166       2.215      2.2419E-02
   8    9.997       9.698       9.327       8.812       8.089       7.108       5.810       4.172       2.216      2.2437E-02
   9    9.997       9.701       9.333       8.825       8.107       7.121       5.817       4.175       2.217      2.2446E-02
  10    9.997       9.702       9.336       8.829       8.113       7.125       5.819       4.176       2.218      2.2449E-02

 HEAD WILL BE SAVED ON UNIT   51 AT END OF TIME STEP   34, STRESS PERIOD    3

 DRAWDOWN WILL BE SAVED ON UNIT   52 AT END OF TIME STEP   34, STRESS PERIOD    3
1
  VOLUMETRIC BUDGET FOR ENTIRE MODEL AT END OF TIME STEP   34, STRESS PERIOD   3
  ------------------------------------------------------------------------------

     CUMULATIVE VOLUMES      L**3       RATES FOR THIS TIME STEP      L**3/T
     ------------------                 ------------------------

           IN:                                      IN:
           ---                                      ---
             STORAGE =      349856.6875               STORAGE =        1039.9292
       CONSTANT HEAD =           0.0000         CONSTANT HEAD =           0.0000
               WELLS =           0.0000                 WELLS =           0.0000
     HEAD DEP BOUNDS =        7091.5205       HEAD DEP BOUNDS =         181.1486

            TOTAL IN =      356948.2188              TOTAL IN =        1221.0778

          OUT:                                     OUT:
          ----                                     ----
             STORAGE =           0.0000               STORAGE =           0.0000
       CONSTANT HEAD =           0.0000         CONSTANT HEAD =           0.0000
               WELLS =        3400.0000                 WELLS =         100.0000
     HEAD DEP BOUNDS =      353548.1875       HEAD DEP BOUNDS =        1121.0635

           TOTAL OUT =      356948.1875             TOTAL OUT =        1221.0635

            IN - OUT =       3.1250E-02              IN - OUT =       1.4282E-02

 PERCENT DISCREPANCY =           0.00     PERCENT DISCREPANCY =           0.00






         TIME SUMMARY AT END OF TIME STEP   34 IN STRESS PERIOD    3
                    SECONDS     MINUTES      HOURS       DAYS        YEARS
                    -----------------------------------------------------------
   TIME STEP LENGTH  86400.      1440.0      24.000      1.0000     2.73785E-03
 STRESS PERIOD TIME 2.93760E+06  48960.      816.00      34.000     9.30869E-02
         TOTAL TIME 1.16640E+07 1.94400E+05  3240.0      135.00     0.36961    
1
 
 SOLVING FOR HEAD 

 OUTPUT CONTROL FOR STRESS PERIOD    3   TIME STEP   35
    SAVE HEAD FOR ALL LAYERS
    SAVE DRAWDOWN FOR ALL LAYERS
    SAVE BUDGET
    PRINT HEAD FOR ALL LAYERS
    PRINT BUDGET
 UBDSV1 SAVING "         STORAGE" ON UNIT  53 AT TIME STEP 35, STRESS PERIOD   3
 UBDSV2 SAVING "   CONSTANT HEAD" ON UNIT  53 AT TIME STEP 35, STRESS PERIOD   3
 UBDSV1 SAVING "FLOW RIGHT FACE " ON UNIT  53 AT TIME STEP 35, STRESS PERIOD   3
 UBDSV1 SAVING "FLOW FRONT FACE " ON UNIT  53 AT TIME STEP 35, STRESS PERIOD   3
1
              HEAD IN LAYER   1 AT END OF TIME STEP  35 IN STRESS PERIOD    3
  ---------------------------------------------------------------------------

            1           2           3           4           5           6           7           8           9          10
 ........................................................................................................................
   1    9.997       9.696       9.324       8.810       8.090       7.102       5.799       4.160       2.209      2.2361E-02
   2    9.997       9.694       9.318       8.798       8.073       7.090       5.793       4.158       2.208      2.2353E-02
   3    9.997       9.688       9.302       8.764       8.020       7.055       5.777       4.152       2.206      2.2334E-02
   4    9.997       9.680       9.275       8.693       7.873       6.982       5.748       4.142       2.204      2.2307E-02
   5    9.997       9.674       9.250       8.594       7.459       6.880       5.722       4.135       2.202      2.2289E-02
   6    9.997       9.680       9.275       8.693       7.873       6.982       5.748       4.142       2.204      2.2307E-02
   7    9.997       9.688       9.302       8.764       8.020       7.055       5.777       4.152       2.206      2.2334E-02
   8    9.997       9.694       9.318       8.799       8.073       7.090       5.793       4.158       2.208      2.2353E-02
   9    9.997       9.697       9.325       8.812       8.092       7.104       5.800       4.161       2.209      2.2363E-02
  10    9.997       9.698       9.327       8.817       8.097       7.108       5.803       4.162       2.210      2.2366E-02

 HEAD WILL BE SAVED ON UNIT   51 AT END OF TIME STEP   35, STRESS PERIOD    3

 DRAWDOWN WILL BE SAVED ON UNIT   52 AT END OF TIME STEP   35, STRESS PERIOD    3
1
  VOLUMETRIC BUDGET FOR ENTIRE MODEL AT END OF TIME STEP   35, STRESS PERIOD   3
  ------------------------------------------------------------------------------

     CUMULATIVE VOLUMES      L**3       RATES FOR THIS TIME STEP      L**3/T
     ------------------                 ------------------------

           IN:                                      IN:
           ---                                      ---
             STORAGE =      350889.6562               STORAGE =        1032.9647
       CONSTANT HEAD =           0.0000         CONSTANT HEAD =           0.0000
               WELLS =           0.0000                 WELLS =           0.0000
     HEAD DEP BOUNDS =        7275.3882       HEAD DEP BOUNDS =         183.8676

            TOTAL IN =      358165.0312              TOTAL IN =        1216.8323

          OUT:                                     OUT:
          ----                                     ----
             STORAGE =           0.0000               STORAGE =           0.0000
       CONSTANT HEAD =           0.0000         CONSTANT HEAD =           0.0000
               WELLS =        3500.0000                 WELLS =         100.0000
     HEAD DEP BOUNDS =      354665.0312       HEAD DEP BOUNDS =        1116.8378

           TOTAL OUT =      358165.0312             TOTAL OUT =        1216.8378

            IN - OUT =           0.0000              IN - OUT =      -5.4932E-03

 PERCENT DISCREPANCY =           0.00     PERCENT DISCREPANCY =          -0.00






         TIME SUMMARY AT END OF TIME STEP   35 IN STRESS PERIOD    3
                    SECONDS     MINUTES      HOURS       DAYS        YEARS
                    -----------------------------------------------------------
   TIME STEP LENGTH  86400.      1440.0      24.000      1.0000     2.73785E-03
 STRESS PERIOD TIME 3.02400E+06  50400.      840.00      35.000     9.58248E-02
         TOTAL TIME 1.17504E+07 1.95840E+05  3264.0      136.00     0.37235    
1
 
 SOLVING FOR HEAD 

 OUTPUT CONTROL FOR STRESS PERIOD    3   TIME STEP   36
    SAVE HEAD FOR ALL LAYERS
    SAVE DRAWDOWN FOR ALL LAYERS
    SAVE BUDGET
    PRINT HEAD FOR ALL LAYERS
    PRINT BUDGET
 UBDSV1 SAVING "         STORAGE" ON UNIT  53 AT TIME STEP 36, STRESS PERIOD   3
 UBDSV2 SAVING "   CONSTANT HEAD" ON UNIT  53 AT TIME STEP 36, STRESS PERIOD   3
 UBDSV1 SAVING "FLOW RIGHT FACE " ON UNIT  53 AT TIME STEP 36, STRESS PERIOD   3
 UBDSV1 SAVING "FLOW FRONT FACE " ON UNIT  53 AT TIME STEP 36, STRESS PERIOD   3
1
              HEAD IN LAYER   1 AT END OF TIME STEP  36 IN STRESS PERIOD    3
  ---------------------------------------------------------------------------

            1           2           3           4           5           6           7           8           9          10
 ........................................................................................................................
   1    9.997       9.692       9.315       8.798       8.074       7.085       5.783       4.147       2.201      2.2279E-02
   2    9.997       9.689       9.309       8.785       8.056       7.072       5.776       4.144       2.200      2.2270E-02
   3    9.997       9.684       9.293       8.750       8.002       7.037       5.759       4.138       2.198      2.2250E-02
   4    9.997       9.675       9.265       8.678       7.854       6.962       5.730       4.128       2.195      2.2221E-02
   5    9.997       9.669       9.239       8.578       7.440       6.860       5.703       4.121       2.194      2.2203E-02
   6    9.997       9.675       9.265       8.678       7.854       6.962       5.730       4.128       2.195      2.2221E-02
   7    9.997       9.684       9.293       8.751       8.002       7.037       5.759       4.138       2.198      2.2250E-02
   8    9.997       9.690       9.309       8.786       8.057       7.073       5.776       4.144       2.200      2.2271E-02
   9    9.997       9.692       9.317       8.800       8.076       7.087       5.784       4.147       2.201      2.2281E-02
  10    9.997       9.693       9.319       8.804       8.082       7.091       5.786       4.148       2.202      2.2285E-02

 HEAD WILL BE SAVED ON UNIT   51 AT END OF TIME STEP   36, STRESS PERIOD    3

 DRAWDOWN WILL BE SAVED ON UNIT   52 AT END OF TIME STEP   36, STRESS PERIOD    3
1
  VOLUMETRIC BUDGET FOR ENTIRE MODEL AT END OF TIME STEP   36, STRESS PERIOD   3
  ------------------------------------------------------------------------------

     CUMULATIVE VOLUMES      L**3       RATES FOR THIS TIME STEP      L**3/T
     ------------------                 ------------------------

           IN:                                      IN:
           ---                                      ---
             STORAGE =      351915.7188               STORAGE =        1026.0590
       CONSTANT HEAD =           0.0000         CONSTANT HEAD =           0.0000
               WELLS =           0.0000                 WELLS =           0.0000
     HEAD DEP BOUNDS =        7461.9873       HEAD DEP BOUNDS =         186.5992

            TOTAL IN =      359377.7188              TOTAL IN =        1212.6582

          OUT:                                     OUT:
          ----                                     ----
             STORAGE =           0.0000               STORAGE =           0.0000
       CONSTANT HEAD =           0.0000         CONSTANT HEAD =           0.0000
               WELLS =        3600.0000                 WELLS =         100.0000
     HEAD DEP BOUNDS =      355777.6875       HEAD DEP BOUNDS =        1112.6537

           TOTAL OUT =      359377.6875             TOTAL OUT =        1212.6537

            IN - OUT =       3.1250E-02              IN - OUT =       4.5166E-03

 PERCENT DISCREPANCY =           0.00     PERCENT DISCREPANCY =           0.00






         TIME SUMMARY AT END OF TIME STEP   36 IN STRESS PERIOD    3
                    SECONDS     MINUTES      HOURS       DAYS        YEARS
                    -----------------------------------------------------------
   TIME STEP LENGTH  86400.      1440.0      24.000      1.0000     2.73785E-03
 STRESS PERIOD TIME 3.11040E+06  51840.      864.00      36.000     9.85626E-02
         TOTAL TIME 1.18368E+07 1.97280E+05  3288.0      137.00     0.37509    
1
 
 SOLVING FOR HEAD 

 OUTPUT CONTROL FOR STRESS PERIOD    3   TIME STEP   37
    SAVE HEAD FOR ALL LAYERS
    SAVE DRAWDOWN FOR ALL LAYERS
    SAVE BUDGET
    PRINT HEAD FOR ALL LAYERS
    PRINT BUDGET
 UBDSV1 SAVING "         STORAGE" ON UNIT  53 AT TIME STEP 37, STRESS PERIOD   3
 UBDSV2 SAVING "   CONSTANT HEAD" ON UNIT  53 AT TIME STEP 37, STRESS PERIOD   3
 UBDSV1 SAVING "FLOW RIGHT FACE " ON UNIT  53 AT TIME STEP 37, STRESS PERIOD   3
 UBDSV1 SAVING "FLOW FRONT FACE " ON UNIT  53 AT TIME STEP 37, STRESS PERIOD   3
1
              HEAD IN LAYER   1 AT END OF TIME STEP  37 IN STRESS PERIOD    3
  ---------------------------------------------------------------------------

            1           2           3           4           5           6           7           8           9          10
 ........................................................................................................................
   1    9.997       9.688       9.307       8.785       8.058       7.068       5.766       4.133       2.193      2.2198E-02
   2    9.997       9.685       9.300       8.772       8.040       7.054       5.759       4.130       2.192      2.2188E-02
   3    9.997       9.679       9.283       8.737       7.985       7.018       5.742       4.124       2.190      2.2167E-02
   4    9.997       9.670       9.255       8.663       7.836       6.943       5.712       4.113       2.187      2.2136E-02
   5    9.997       9.663       9.229       8.563       7.421       6.840       5.685       4.106       2.185      2.2117E-02
   6    9.997       9.670       9.255       8.663       7.836       6.943       5.712       4.113       2.187      2.2136E-02
   7    9.997       9.679       9.283       8.737       7.985       7.018       5.742       4.124       2.190      2.2167E-02
   8    9.997       9.685       9.300       8.773       8.041       7.055       5.759       4.130       2.192      2.2189E-02
   9    9.997       9.688       9.308       8.788       8.061       7.070       5.767       4.134       2.193      2.2200E-02
  10    9.997       9.689       9.311       8.792       8.067       7.075       5.770       4.135       2.194      2.2204E-02

 HEAD WILL BE SAVED ON UNIT   51 AT END OF TIME STEP   37, STRESS PERIOD    3

 DRAWDOWN WILL BE SAVED ON UNIT   52 AT END OF TIME STEP   37, STRESS PERIOD    3
1
  VOLUMETRIC BUDGET FOR ENTIRE MODEL AT END OF TIME STEP   37, STRESS PERIOD   3
  ------------------------------------------------------------------------------

     CUMULATIVE VOLUMES      L**3       RATES FOR THIS TIME STEP      L**3/T
     ------------------                 ------------------------

           IN:                                      IN:
           ---                                      ---
             STORAGE =      352934.9062               STORAGE =        1019.1929
       CONSTANT HEAD =           0.0000         CONSTANT HEAD =           0.0000
               WELLS =           0.0000                 WELLS =           0.0000
     HEAD DEP BOUNDS =        7651.3237       HEAD DEP BOUNDS =         189.3363

            TOTAL IN =      360586.2188              TOTAL IN =        1208.5292

          OUT:                                     OUT:
          ----                                     ----
             STORAGE =           0.0000               STORAGE =           0.0000
       CONSTANT HEAD =           0.0000         CONSTANT HEAD =           0.0000
               WELLS =        3700.0000                 WELLS =         100.0000
     HEAD DEP BOUNDS =      356886.1875       HEAD DEP BOUNDS =        1108.5112

           TOTAL OUT =      360586.1875             TOTAL OUT =        1208.5112

            IN - OUT =       3.1250E-02              IN - OUT =       1.7944E-02

 PERCENT DISCREPANCY =           0.00     PERCENT DISCREPANCY =           0.00






         TIME SUMMARY AT END OF TIME STEP   37 IN STRESS PERIOD    3
                    SECONDS     MINUTES      HOURS       DAYS        YEARS
                    -----------------------------------------------------------
   TIME STEP LENGTH  86400.      1440.0      24.000      1.0000     2.73785E-03
 STRESS PERIOD TIME 3.19680E+06  53280.      888.00      37.000     0.10130    
         TOTAL TIME 1.19232E+07 1.98720E+05  3312.0      138.00     0.37782    
1
 
 SOLVING FOR HEAD 

 OUTPUT CONTROL FOR STRESS PERIOD    3   TIME STEP   38
    SAVE HEAD FOR ALL LAYERS
    SAVE DRAWDOWN FOR ALL LAYERS
    SAVE BUDGET
    PRINT HEAD FOR ALL LAYERS
    PRINT BUDGET
 UBDSV1 SAVING "         STORAGE" ON UNIT  53 AT TIME STEP 38, STRESS PERIOD   3
 UBDSV2 SAVING "   CONSTANT HEAD" ON UNIT  53 AT TIME STEP 38, STRESS PERIOD   3
 UBDSV1 SAVING "FLOW RIGHT FACE " ON UNIT  53 AT TIME STEP 38, STRESS PERIOD   3
 UBDSV1 SAVING "FLOW FRONT FACE " ON UNIT  53 AT TIME STEP 38, STRESS PERIOD   3
1
              HEAD IN LAYER   1 AT END OF TIME STEP  38 IN STRESS PERIOD    3
  ---------------------------------------------------------------------------

            1           2           3           4           5           6           7           8           9          10
 ........................................................................................................................
   1    9.997       9.683       9.298       8.773       8.043       7.051       5.749       4.120       2.185      2.2117E-02
   2    9.997       9.681       9.291       8.759       8.024       7.037       5.742       4.117       2.184      2.2107E-02
   3    9.997       9.674       9.274       8.723       7.968       7.000       5.724       4.110       2.182      2.2084E-02
   4    9.997       9.665       9.245       8.648       7.818       6.923       5.694       4.099       2.179      2.2052E-02
   5    9.997       9.658       9.219       8.548       7.402       6.820       5.666       4.091       2.177      2.2033E-02
   6    9.997       9.665       9.245       8.648       7.818       6.923       5.694       4.099       2.179      2.2052E-02
   7    9.997       9.674       9.274       8.723       7.968       7.000       5.724       4.110       2.182      2.2084E-02
   8    9.997       9.681       9.292       8.760       8.025       7.038       5.742       4.117       2.185      2.2108E-02
   9    9.997       9.684       9.300       8.775       8.046       7.053       5.751       4.120       2.186      2.2120E-02
  10    9.997       9.685       9.303       8.780       8.052       7.058       5.754       4.122       2.186      2.2124E-02

 HEAD WILL BE SAVED ON UNIT   51 AT END OF TIME STEP   38, STRESS PERIOD    3

 DRAWDOWN WILL BE SAVED ON UNIT   52 AT END OF TIME STEP   38, STRESS PERIOD    3
1
  VOLUMETRIC BUDGET FOR ENTIRE MODEL AT END OF TIME STEP   38, STRESS PERIOD   3
  ------------------------------------------------------------------------------

     CUMULATIVE VOLUMES      L**3       RATES FOR THIS TIME STEP      L**3/T
     ------------------                 ------------------------

           IN:                                      IN:
           ---                                      ---
             STORAGE =      353947.2812               STORAGE =        1012.3597
       CONSTANT HEAD =           0.0000         CONSTANT HEAD =           0.0000
               WELLS =           0.0000                 WELLS =           0.0000
     HEAD DEP BOUNDS =        7843.3687       HEAD DEP BOUNDS =         192.0452

            TOTAL IN =      361790.6562              TOTAL IN =        1204.4049

          OUT:                                     OUT:
          ----                                     ----
             STORAGE =           0.0000               STORAGE =           0.0000
       CONSTANT HEAD =           0.0000         CONSTANT HEAD =           0.0000
               WELLS =        3800.0000                 WELLS =         100.0000
     HEAD DEP BOUNDS =      357990.5938       HEAD DEP BOUNDS =        1104.4075

           TOTAL OUT =      361790.5938             TOTAL OUT =        1204.4075

            IN - OUT =       6.2500E-02              IN - OUT =      -2.5635E-03

 PERCENT DISCREPANCY =           0.00     PERCENT DISCREPANCY =          -0.00






         TIME SUMMARY AT END OF TIME STEP   38 IN STRESS PERIOD    3
                    SECONDS     MINUTES      HOURS       DAYS        YEARS
                    -----------------------------------------------------------
   TIME STEP LENGTH  86400.      1440.0      24.000      1.0000     2.73785E-03
 STRESS PERIOD TIME 3.28320E+06  54720.      912.00      38.000     0.10404    
         TOTAL TIME 1.20096E+07 2.00160E+05  3336.0      139.00     0.38056    
1
 
 SOLVING FOR HEAD 

 OUTPUT CONTROL FOR STRESS PERIOD    3   TIME STEP   39
    SAVE HEAD FOR ALL LAYERS
    SAVE DRAWDOWN FOR ALL LAYERS
    SAVE BUDGET
    PRINT HEAD FOR ALL LAYERS
    PRINT BUDGET
 UBDSV1 SAVING "         STORAGE" ON UNIT  53 AT TIME STEP 39, STRESS PERIOD   3
 UBDSV2 SAVING "   CONSTANT HEAD" ON UNIT  53 AT TIME STEP 39, STRESS PERIOD   3
 UBDSV1 SAVING "FLOW RIGHT FACE " ON UNIT  53 AT TIME STEP 39, STRESS PERIOD   3
 UBDSV1 SAVING "FLOW FRONT FACE " ON UNIT  53 AT TIME STEP 39, STRESS PERIOD   3
1
              HEAD IN LAYER   1 AT END OF TIME STEP  39 IN STRESS PERIOD    3
  ---------------------------------------------------------------------------

            1           2           3           4           5           6           7           8           9          10
 ........................................................................................................................
   1    9.997       9.679       9.290       8.761       8.027       7.034       5.733       4.106       2.178      2.2038E-02
   2    9.997       9.676       9.282       8.747       8.008       7.019       5.725       4.103       2.177      2.2027E-02
   3    9.997       9.670       9.264       8.709       7.951       6.981       5.707       4.096       2.174      2.2002E-02
   4    9.997       9.660       9.235       8.634       7.800       6.904       5.676       4.085       2.171      2.1969E-02
   5    9.997       9.653       9.208       8.533       7.383       6.800       5.648       4.077       2.169      2.1949E-02
   6    9.997       9.660       9.235       8.634       7.800       6.904       5.676       4.085       2.171      2.1969E-02
   7    9.997       9.670       9.265       8.709       7.951       6.982       5.707       4.096       2.174      2.2002E-02
   8    9.997       9.676       9.283       8.747       8.009       7.020       5.726       4.103       2.177      2.2027E-02
   9    9.997       9.680       9.291       8.763       8.030       7.036       5.734       4.107       2.178      2.2040E-02
  10    9.997       9.681       9.294       8.768       8.037       7.041       5.738       4.109       2.179      2.2045E-02

 HEAD WILL BE SAVED ON UNIT   51 AT END OF TIME STEP   39, STRESS PERIOD    3

 DRAWDOWN WILL BE SAVED ON UNIT   52 AT END OF TIME STEP   39, STRESS PERIOD    3
1
  VOLUMETRIC BUDGET FOR ENTIRE MODEL AT END OF TIME STEP   39, STRESS PERIOD   3
  ------------------------------------------------------------------------------

     CUMULATIVE VOLUMES      L**3       RATES FOR THIS TIME STEP      L**3/T
     ------------------                 ------------------------

           IN:                                      IN:
           ---                                      ---
             STORAGE =      354952.8438               STORAGE =        1005.5762
       CONSTANT HEAD =           0.0000         CONSTANT HEAD =           0.0000
               WELLS =           0.0000                 WELLS =           0.0000
     HEAD DEP BOUNDS =        8038.1270       HEAD DEP BOUNDS =         194.7583

            TOTAL IN =      362990.9688              TOTAL IN =        1200.3345

          OUT:                                     OUT:
          ----                                     ----
             STORAGE =           0.0000               STORAGE =           0.0000
       CONSTANT HEAD =           0.0000         CONSTANT HEAD =           0.0000
               WELLS =        3900.0000                 WELLS =         100.0000
     HEAD DEP BOUNDS =      359090.9375       HEAD DEP BOUNDS =        1100.3451

           TOTAL OUT =      362990.9375             TOTAL OUT =        1200.3451

            IN - OUT =       3.1250E-02              IN - OUT =      -1.0620E-02

 PERCENT DISCREPANCY =           0.00     PERCENT DISCREPANCY =          -0.00






         TIME SUMMARY AT END OF TIME STEP   39 IN STRESS PERIOD    3
                    SECONDS     MINUTES      HOURS       DAYS        YEARS
                    -----------------------------------------------------------
   TIME STEP LENGTH  86400.      1440.0      24.000      1.0000     2.73785E-03
 STRESS PERIOD TIME 3.36960E+06  56160.      936.00      39.000     0.10678    
         TOTAL TIME 1.20960E+07 2.01600E+05  3360.0      140.00     0.38330    
1
 
 SOLVING FOR HEAD 

 OUTPUT CONTROL FOR STRESS PERIOD    3   TIME STEP   40
    SAVE HEAD FOR ALL LAYERS
    SAVE DRAWDOWN FOR ALL LAYERS
    SAVE BUDGET
    PRINT HEAD FOR ALL LAYERS
    PRINT BUDGET
 UBDSV1 SAVING "         STORAGE" ON UNIT  53 AT TIME STEP 40, STRESS PERIOD   3
 UBDSV2 SAVING "   CONSTANT HEAD" ON UNIT  53 AT TIME STEP 40, STRESS PERIOD   3
 UBDSV1 SAVING "FLOW RIGHT FACE " ON UNIT  53 AT TIME STEP 40, STRESS PERIOD   3
 UBDSV1 SAVING "FLOW FRONT FACE " ON UNIT  53 AT TIME STEP 40, STRESS PERIOD   3
1
              HEAD IN LAYER   1 AT END OF TIME STEP  40 IN STRESS PERIOD    3
  ---------------------------------------------------------------------------

            1           2           3           4           5           6           7           8           9          10
 ........................................................................................................................
   1    9.997       9.675       9.281       8.748       8.012       7.017       5.717       4.093       2.170      2.1959E-02
   2    9.997       9.672       9.274       8.734       7.992       7.002       5.709       4.090       2.169      2.1947E-02
   3    9.997       9.665       9.255       8.696       7.934       6.963       5.690       4.082       2.166      2.1921E-02
   4    9.997       9.655       9.225       8.619       7.782       6.885       5.658       4.071       2.163      2.1887E-02
   5    9.997       9.648       9.198       8.518       7.365       6.781       5.630       4.063       2.161      2.1866E-02
   6    9.997       9.655       9.225       8.619       7.782       6.885       5.658       4.071       2.163      2.1887E-02
   7    9.997       9.665       9.255       8.696       7.934       6.963       5.690       4.082       2.166      2.1921E-02
   8    9.997       9.672       9.274       8.735       7.993       7.003       5.709       4.090       2.169      2.1948E-02
   9    9.997       9.675       9.283       8.751       8.015       7.019       5.718       4.094       2.170      2.1962E-02
  10    9.997       9.677       9.286       8.756       8.022       7.025       5.722       4.096       2.171      2.1967E-02

 HEAD WILL BE SAVED ON UNIT   51 AT END OF TIME STEP   40, STRESS PERIOD    3

 DRAWDOWN WILL BE SAVED ON UNIT   52 AT END OF TIME STEP   40, STRESS PERIOD    3
1
  VOLUMETRIC BUDGET FOR ENTIRE MODEL AT END OF TIME STEP   40, STRESS PERIOD   3
  ------------------------------------------------------------------------------

     CUMULATIVE VOLUMES      L**3       RATES FOR THIS TIME STEP      L**3/T
     ------------------                 ------------------------

           IN:                                      IN:
           ---                                      ---
             STORAGE =      355951.6875               STORAGE =         998.8365
       CONSTANT HEAD =           0.0000         CONSTANT HEAD =           0.0000
               WELLS =           0.0000                 WELLS =           0.0000
     HEAD DEP BOUNDS =        8235.6094       HEAD DEP BOUNDS =         197.4821

            TOTAL IN =      364187.3125              TOTAL IN =        1196.3186

          OUT:                                     OUT:
          ----                                     ----
             STORAGE =           0.0000               STORAGE =           0.0000
       CONSTANT HEAD =           0.0000         CONSTANT HEAD =           0.0000
               WELLS =        4000.0000                 WELLS =         100.0000
     HEAD DEP BOUNDS =      360187.2500       HEAD DEP BOUNDS =        1096.3173

           TOTAL OUT =      364187.2500             TOTAL OUT =        1196.3173

            IN - OUT =       6.2500E-02              IN - OUT =       1.3428E-03

 PERCENT DISCREPANCY =           0.00     PERCENT DISCREPANCY =           0.00






         TIME SUMMARY AT END OF TIME STEP   40 IN STRESS PERIOD    3
                    SECONDS     MINUTES      HOURS       DAYS        YEARS
                    -----------------------------------------------------------
   TIME STEP LENGTH  86400.      1440.0      24.000      1.0000     2.73785E-03
 STRESS PERIOD TIME 3.45600E+06  57600.      960.00      40.000     0.10951    
         TOTAL TIME 1.21824E+07 2.03040E+05  3384.0      141.00     0.38604    
1
 
 SOLVING FOR HEAD 

 OUTPUT CONTROL FOR STRESS PERIOD    3   TIME STEP   41
    SAVE HEAD FOR ALL LAYERS
    SAVE DRAWDOWN FOR ALL LAYERS
    SAVE BUDGET
    PRINT HEAD FOR ALL LAYERS
    PRINT BUDGET
 UBDSV1 SAVING "         STORAGE" ON UNIT  53 AT TIME STEP 41, STRESS PERIOD   3
 UBDSV2 SAVING "   CONSTANT HEAD" ON UNIT  53 AT TIME STEP 41, STRESS PERIOD   3
 UBDSV1 SAVING "FLOW RIGHT FACE " ON UNIT  53 AT TIME STEP 41, STRESS PERIOD   3
 UBDSV1 SAVING "FLOW FRONT FACE " ON UNIT  53 AT TIME STEP 41, STRESS PERIOD   3
1
              HEAD IN LAYER   1 AT END OF TIME STEP  41 IN STRESS PERIOD    3
  ---------------------------------------------------------------------------

            1           2           3           4           5           6           7           8           9          10
 ........................................................................................................................
   1    9.997       9.670       9.273       8.736       7.997       7.000       5.701       4.080       2.163      2.1880E-02
   2    9.997       9.667       9.265       8.721       7.977       6.985       5.692       4.077       2.161      2.1868E-02
   3    9.997       9.660       9.246       8.682       7.917       6.945       5.673       4.068       2.159      2.1841E-02
   4    9.997       9.650       9.215       8.605       7.764       6.866       5.640       4.057       2.155      2.1805E-02
   5    9.996       9.643       9.188       8.503       7.346       6.761       5.612       4.049       2.153      2.1783E-02
   6    9.997       9.650       9.215       8.605       7.764       6.866       5.640       4.057       2.155      2.1805E-02
   7    9.997       9.660       9.246       8.682       7.918       6.945       5.673       4.069       2.159      2.1841E-02
   8    9.997       9.668       9.265       8.722       7.978       6.986       5.693       4.077       2.161      2.1869E-02
   9    9.997       9.671       9.275       8.739       8.000       7.003       5.702       4.081       2.163      2.1884E-02
  10    9.997       9.673       9.278       8.745       8.007       7.009       5.706       4.083       2.163      2.1890E-02

 HEAD WILL BE SAVED ON UNIT   51 AT END OF TIME STEP   41, STRESS PERIOD    3

 DRAWDOWN WILL BE SAVED ON UNIT   52 AT END OF TIME STEP   41, STRESS PERIOD    3
1
  VOLUMETRIC BUDGET FOR ENTIRE MODEL AT END OF TIME STEP   41, STRESS PERIOD   3
  ------------------------------------------------------------------------------

     CUMULATIVE VOLUMES      L**3       RATES FOR THIS TIME STEP      L**3/T
     ------------------                 ------------------------

           IN:                                      IN:
           ---                                      ---
             STORAGE =      356943.8125               STORAGE =         992.1360
       CONSTANT HEAD =           0.0000         CONSTANT HEAD =           0.0000
               WELLS =           0.0000                 WELLS =           0.0000
     HEAD DEP BOUNDS =        8435.8057       HEAD DEP BOUNDS =         200.1959

            TOTAL IN =      365379.6250              TOTAL IN =        1192.3319

          OUT:                                     OUT:
          ----                                     ----
             STORAGE =           0.0000               STORAGE =           0.0000
       CONSTANT HEAD =           0.0000         CONSTANT HEAD =           0.0000
               WELLS =        4100.0000                 WELLS =         100.0000
     HEAD DEP BOUNDS =      361279.5938       HEAD DEP BOUNDS =        1092.3308

           TOTAL OUT =      365379.5938             TOTAL OUT =        1192.3308

            IN - OUT =       3.1250E-02              IN - OUT =       1.0986E-03

 PERCENT DISCREPANCY =           0.00     PERCENT DISCREPANCY =           0.00






         TIME SUMMARY AT END OF TIME STEP   41 IN STRESS PERIOD    3
                    SECONDS     MINUTES      HOURS       DAYS        YEARS
                    -----------------------------------------------------------
   TIME STEP LENGTH  86400.      1440.0      24.000      1.0000     2.73785E-03
 STRESS PERIOD TIME 3.54240E+06  59040.      984.00      41.000     0.11225    
         TOTAL TIME 1.22688E+07 2.04480E+05  3408.0      142.00     0.38877    
1
 
 SOLVING FOR HEAD 

 OUTPUT CONTROL FOR STRESS PERIOD    3   TIME STEP   42
    SAVE HEAD FOR ALL LAYERS
    SAVE DRAWDOWN FOR ALL LAYERS
    SAVE BUDGET
    PRINT HEAD FOR ALL LAYERS
    PRINT BUDGET
 UBDSV1 SAVING "         STORAGE" ON UNIT  53 AT TIME STEP 42, STRESS PERIOD   3
 UBDSV2 SAVING "   CONSTANT HEAD" ON UNIT  53 AT TIME STEP 42, STRESS PERIOD   3
 UBDSV1 SAVING "FLOW RIGHT FACE " ON UNIT  53 AT TIME STEP 42, STRESS PERIOD   3
 UBDSV1 SAVING "FLOW FRONT FACE " ON UNIT  53 AT TIME STEP 42, STRESS PERIOD   3
1
              HEAD IN LAYER   1 AT END OF TIME STEP  42 IN STRESS PERIOD    3
  ---------------------------------------------------------------------------

            1           2           3           4           5           6           7           8           9          10
 ........................................................................................................................
   1    9.997       9.666       9.264       8.724       7.981       6.983       5.684       4.067       2.155      2.1803E-02
   2    9.997       9.663       9.256       8.708       7.961       6.968       5.676       4.063       2.154      2.1790E-02
   3    9.997       9.656       9.237       8.668       7.901       6.927       5.656       4.055       2.151      2.1761E-02
   4    9.997       9.645       9.205       8.590       7.746       6.847       5.623       4.043       2.147      2.1724E-02
   5    9.996       9.638       9.178       8.488       7.328       6.742       5.594       4.035       2.145      2.1702E-02
   6    9.997       9.645       9.205       8.590       7.747       6.847       5.623       4.043       2.147      2.1724E-02
   7    9.997       9.656       9.237       8.669       7.901       6.927       5.656       4.055       2.151      2.1762E-02
   8    9.997       9.663       9.257       8.709       7.962       6.969       5.676       4.064       2.154      2.1791E-02
   9    9.997       9.667       9.266       8.727       7.985       6.986       5.686       4.068       2.155      2.1807E-02
  10    9.997       9.668       9.270       8.733       7.993       6.992       5.690       4.070       2.156      2.1813E-02

 HEAD WILL BE SAVED ON UNIT   51 AT END OF TIME STEP   42, STRESS PERIOD    3

 DRAWDOWN WILL BE SAVED ON UNIT   52 AT END OF TIME STEP   42, STRESS PERIOD    3
1
  VOLUMETRIC BUDGET FOR ENTIRE MODEL AT END OF TIME STEP   42, STRESS PERIOD   3
  ------------------------------------------------------------------------------

     CUMULATIVE VOLUMES      L**3       RATES FOR THIS TIME STEP      L**3/T
     ------------------                 ------------------------

           IN:                                      IN:
           ---                                      ---
             STORAGE =      357929.2812               STORAGE =         985.4765
       CONSTANT HEAD =           0.0000         CONSTANT HEAD =           0.0000
               WELLS =           0.0000                 WELLS =           0.0000
     HEAD DEP BOUNDS =        8638.7119       HEAD DEP BOUNDS =         202.9060

            TOTAL IN =      366568.0000              TOTAL IN =        1188.3826

          OUT:                                     OUT:
          ----                                     ----
             STORAGE =           0.0000               STORAGE =           0.0000
       CONSTANT HEAD =           0.0000         CONSTANT HEAD =           0.0000
               WELLS =        4200.0000                 WELLS =         100.0000
     HEAD DEP BOUNDS =      362367.9688       HEAD DEP BOUNDS =        1088.3802

           TOTAL OUT =      366567.9688             TOTAL OUT =        1188.3802

            IN - OUT =       3.1250E-02              IN - OUT =       2.3193E-03

 PERCENT DISCREPANCY =           0.00     PERCENT DISCREPANCY =           0.00






         TIME SUMMARY AT END OF TIME STEP   42 IN STRESS PERIOD    3
                    SECONDS     MINUTES      HOURS       DAYS        YEARS
                    -----------------------------------------------------------
   TIME STEP LENGTH  86400.      1440.0      24.000      1.0000     2.73785E-03
 STRESS PERIOD TIME 3.62880E+06  60480.      1008.0      42.000     0.11499    
         TOTAL TIME 1.23552E+07 2.05920E+05  3432.0      143.00     0.39151    
1
 
 SOLVING FOR HEAD 

 OUTPUT CONTROL FOR STRESS PERIOD    3   TIME STEP   43
    SAVE HEAD FOR ALL LAYERS
    SAVE DRAWDOWN FOR ALL LAYERS
    SAVE BUDGET
    PRINT HEAD FOR ALL LAYERS
    PRINT BUDGET
 UBDSV1 SAVING "         STORAGE" ON UNIT  53 AT TIME STEP 43, STRESS PERIOD   3
 UBDSV2 SAVING "   CONSTANT HEAD" ON UNIT  53 AT TIME STEP 43, STRESS PERIOD   3
 UBDSV1 SAVING "FLOW RIGHT FACE " ON UNIT  53 AT TIME STEP 43, STRESS PERIOD   3
 UBDSV1 SAVING "FLOW FRONT FACE " ON UNIT  53 AT TIME STEP 43, STRESS PERIOD   3
1
              HEAD IN LAYER   1 AT END OF TIME STEP  43 IN STRESS PERIOD    3
  ---------------------------------------------------------------------------

            1           2           3           4           5           6           7           8           9          10
 ........................................................................................................................
   1    9.997       9.662       9.256       8.711       7.966       6.967       5.669       4.054       2.148      2.1726E-02
   2    9.997       9.658       9.247       8.696       7.945       6.951       5.660       4.050       2.146      2.1712E-02
   3    9.997       9.651       9.227       8.655       7.884       6.909       5.639       4.042       2.143      2.1682E-02
   4    9.996       9.640       9.195       8.576       7.729       6.829       5.605       4.029       2.140      2.1644E-02
   5    9.996       9.633       9.168       8.474       7.310       6.723       5.576       4.021       2.137      2.1621E-02
   6    9.996       9.640       9.195       8.576       7.729       6.829       5.605       4.029       2.140      2.1644E-02
   7    9.997       9.651       9.227       8.655       7.885       6.910       5.639       4.042       2.143      2.1683E-02
   8    9.997       9.659       9.248       8.697       7.946       6.952       5.660       4.051       2.146      2.1713E-02
   9    9.997       9.663       9.258       8.715       7.970       6.970       5.671       4.055       2.148      2.1731E-02
  10    9.997       9.664       9.262       8.721       7.978       6.976       5.674       4.057       2.149      2.1737E-02

 HEAD WILL BE SAVED ON UNIT   51 AT END OF TIME STEP   43, STRESS PERIOD    3

 DRAWDOWN WILL BE SAVED ON UNIT   52 AT END OF TIME STEP   43, STRESS PERIOD    3
1
  VOLUMETRIC BUDGET FOR ENTIRE MODEL AT END OF TIME STEP   43, STRESS PERIOD   3
  ------------------------------------------------------------------------------

     CUMULATIVE VOLUMES      L**3       RATES FOR THIS TIME STEP      L**3/T
     ------------------                 ------------------------

           IN:                                      IN:
           ---                                      ---
             STORAGE =      358908.1250               STORAGE =         978.8558
       CONSTANT HEAD =           0.0000         CONSTANT HEAD =           0.0000
               WELLS =           0.0000                 WELLS =           0.0000
     HEAD DEP BOUNDS =        8844.3105       HEAD DEP BOUNDS =         205.5988

            TOTAL IN =      367752.4375              TOTAL IN =        1184.4546

          OUT:                                     OUT:
          ----                                     ----
             STORAGE =           0.0000               STORAGE =           0.0000
       CONSTANT HEAD =           0.0000         CONSTANT HEAD =           0.0000
               WELLS =        4300.0000                 WELLS =         100.0000
     HEAD DEP BOUNDS =      363452.4375       HEAD DEP BOUNDS =        1084.4652

           TOTAL OUT =      367752.4375             TOTAL OUT =        1184.4652

            IN - OUT =           0.0000              IN - OUT =      -1.0620E-02

 PERCENT DISCREPANCY =           0.00     PERCENT DISCREPANCY =          -0.00






         TIME SUMMARY AT END OF TIME STEP   43 IN STRESS PERIOD    3
                    SECONDS     MINUTES      HOURS       DAYS        YEARS
                    -----------------------------------------------------------
   TIME STEP LENGTH  86400.      1440.0      24.000      1.0000     2.73785E-03
 STRESS PERIOD TIME 3.71520E+06  61920.      1032.0      43.000     0.11773    
         TOTAL TIME 1.24416E+07 2.07360E+05  3456.0      144.00     0.39425    
1
 
 SOLVING FOR HEAD 

 OUTPUT CONTROL FOR STRESS PERIOD    3   TIME STEP   44
    SAVE HEAD FOR ALL LAYERS
    SAVE DRAWDOWN FOR ALL LAYERS
    SAVE BUDGET
    PRINT HEAD FOR ALL LAYERS
    PRINT BUDGET
 UBDSV1 SAVING "         STORAGE" ON UNIT  53 AT TIME STEP 44, STRESS PERIOD   3
 UBDSV2 SAVING "   CONSTANT HEAD" ON UNIT  53 AT TIME STEP 44, STRESS PERIOD   3
 UBDSV1 SAVING "FLOW RIGHT FACE " ON UNIT  53 AT TIME STEP 44, STRESS PERIOD   3
 UBDSV1 SAVING "FLOW FRONT FACE " ON UNIT  53 AT TIME STEP 44, STRESS PERIOD   3
1
              HEAD IN LAYER   1 AT END OF TIME STEP  44 IN STRESS PERIOD    3
  ---------------------------------------------------------------------------

            1           2           3           4           5           6           7           8           9          10
 ........................................................................................................................
   1    9.997       9.657       9.247       8.699       7.951       6.950       5.653       4.041       2.140      2.1651E-02
   2    9.997       9.654       9.239       8.683       7.930       6.934       5.644       4.037       2.139      2.1635E-02
   3    9.997       9.646       9.218       8.642       7.868       6.892       5.622       4.028       2.136      2.1604E-02
   4    9.996       9.635       9.186       8.562       7.712       6.810       5.588       4.016       2.132      2.1564E-02
   5    9.996       9.628       9.158       8.459       7.292       6.705       5.559       4.007       2.130      2.1541E-02
   6    9.996       9.635       9.186       8.562       7.712       6.810       5.588       4.016       2.132      2.1564E-02
   7    9.997       9.646       9.218       8.642       7.868       6.892       5.622       4.028       2.136      2.1605E-02
   8    9.997       9.654       9.239       8.684       7.931       6.935       5.644       4.038       2.139      2.1637E-02
   9    9.997       9.658       9.250       8.703       7.955       6.954       5.655       4.043       2.141      2.1655E-02
  10    9.997       9.660       9.253       8.709       7.963       6.960       5.659       4.045       2.141      2.1662E-02

 HEAD WILL BE SAVED ON UNIT   51 AT END OF TIME STEP   44, STRESS PERIOD    3

 DRAWDOWN WILL BE SAVED ON UNIT   52 AT END OF TIME STEP   44, STRESS PERIOD    3
1
  VOLUMETRIC BUDGET FOR ENTIRE MODEL AT END OF TIME STEP   44, STRESS PERIOD   3
  ------------------------------------------------------------------------------

     CUMULATIVE VOLUMES      L**3       RATES FOR THIS TIME STEP      L**3/T
     ------------------                 ------------------------

           IN:                                      IN:
           ---                                      ---
             STORAGE =      359880.4062               STORAGE =         972.2808
       CONSTANT HEAD =           0.0000         CONSTANT HEAD =           0.0000
               WELLS =           0.0000                 WELLS =           0.0000
     HEAD DEP BOUNDS =        9052.6045       HEAD DEP BOUNDS =         208.2936

            TOTAL IN =      368933.0000              TOTAL IN =        1180.5745

          OUT:                                     OUT:
          ----                                     ----
             STORAGE =           0.0000               STORAGE =           0.0000
       CONSTANT HEAD =           0.0000         CONSTANT HEAD =           0.0000
               WELLS =        4400.0000                 WELLS =         100.0000
     HEAD DEP BOUNDS =      364533.0312       HEAD DEP BOUNDS =        1080.5892

           TOTAL OUT =      368933.0312             TOTAL OUT =        1180.5892

            IN - OUT =      -3.1250E-02              IN - OUT =      -1.4771E-02

 PERCENT DISCREPANCY =          -0.00     PERCENT DISCREPANCY =          -0.00






         TIME SUMMARY AT END OF TIME STEP   44 IN STRESS PERIOD    3
                    SECONDS     MINUTES      HOURS       DAYS        YEARS
                    -----------------------------------------------------------
   TIME STEP LENGTH  86400.      1440.0      24.000      1.0000     2.73785E-03
 STRESS PERIOD TIME 3.80160E+06  63360.      1056.0      44.000     0.12047    
         TOTAL TIME 1.25280E+07 2.08800E+05  3480.0      145.00     0.39699    
1
 
 SOLVING FOR HEAD 

 OUTPUT CONTROL FOR STRESS PERIOD    3   TIME STEP   45
    SAVE HEAD FOR ALL LAYERS
    SAVE DRAWDOWN FOR ALL LAYERS
    SAVE BUDGET
    PRINT HEAD FOR ALL LAYERS
    PRINT BUDGET
 UBDSV1 SAVING "         STORAGE" ON UNIT  53 AT TIME STEP 45, STRESS PERIOD   3
 UBDSV2 SAVING "   CONSTANT HEAD" ON UNIT  53 AT TIME STEP 45, STRESS PERIOD   3
 UBDSV1 SAVING "FLOW RIGHT FACE " ON UNIT  53 AT TIME STEP 45, STRESS PERIOD   3
 UBDSV1 SAVING "FLOW FRONT FACE " ON UNIT  53 AT TIME STEP 45, STRESS PERIOD   3
1
              HEAD IN LAYER   1 AT END OF TIME STEP  45 IN STRESS PERIOD    3
  ---------------------------------------------------------------------------

            1           2           3           4           5           6           7           8           9          10
 ........................................................................................................................
   1    9.997       9.653       9.239       8.687       7.936       6.934       5.637       4.029       2.133      2.1575E-02
   2    9.997       9.649       9.230       8.670       7.914       6.917       5.628       4.024       2.131      2.1559E-02
   3    9.996       9.642       9.209       8.628       7.852       6.874       5.606       4.015       2.128      2.1527E-02
   4    9.996       9.630       9.176       8.548       7.695       6.792       5.571       4.002       2.124      2.1485E-02
   5    9.996       9.623       9.148       8.445       7.275       6.686       5.542       3.994       2.122      2.1461E-02
   6    9.996       9.630       9.176       8.548       7.695       6.792       5.571       4.002       2.124      2.1485E-02
   7    9.996       9.642       9.209       8.629       7.852       6.875       5.606       4.015       2.128      2.1527E-02
   8    9.997       9.650       9.231       8.672       7.915       6.918       5.628       4.025       2.132      2.1561E-02
   9    9.997       9.654       9.241       8.691       7.940       6.938       5.639       4.030       2.134      2.1580E-02
  10    9.997       9.656       9.245       8.697       7.949       6.944       5.644       4.032       2.134      2.1588E-02

 HEAD WILL BE SAVED ON UNIT   51 AT END OF TIME STEP   45, STRESS PERIOD    3

 DRAWDOWN WILL BE SAVED ON UNIT   52 AT END OF TIME STEP   45, STRESS PERIOD    3
1
  VOLUMETRIC BUDGET FOR ENTIRE MODEL AT END OF TIME STEP   45, STRESS PERIOD   3
  ------------------------------------------------------------------------------

     CUMULATIVE VOLUMES      L**3       RATES FOR THIS TIME STEP      L**3/T
     ------------------                 ------------------------

           IN:                                      IN:
           ---                                      ---
             STORAGE =      360846.1562               STORAGE =         965.7454
       CONSTANT HEAD =           0.0000         CONSTANT HEAD =           0.0000
               WELLS =           0.0000                 WELLS =           0.0000
     HEAD DEP BOUNDS =        9263.6152       HEAD DEP BOUNDS =         211.0103

            TOTAL IN =      370109.7812              TOTAL IN =        1176.7557

          OUT:                                     OUT:
          ----                                     ----
             STORAGE =           0.0000               STORAGE =           0.0000
       CONSTANT HEAD =           0.0000         CONSTANT HEAD =           0.0000
               WELLS =        4500.0000                 WELLS =         100.0000
     HEAD DEP BOUNDS =      365609.7812       HEAD DEP BOUNDS =        1076.7495

           TOTAL OUT =      370109.7812             TOTAL OUT =        1176.7495

            IN - OUT =           0.0000              IN - OUT =       6.2256E-03

 PERCENT DISCREPANCY =           0.00     PERCENT DISCREPANCY =           0.00






         TIME SUMMARY AT END OF TIME STEP   45 IN STRESS PERIOD    3
                    SECONDS     MINUTES      HOURS       DAYS        YEARS
                    -----------------------------------------------------------
   TIME STEP LENGTH  86400.      1440.0      24.000      1.0000     2.73785E-03
 STRESS PERIOD TIME 3.88800E+06  64800.      1080.0      45.000     0.12320    
         TOTAL TIME 1.26144E+07 2.10240E+05  3504.0      146.00     0.39973    
1
 
 SOLVING FOR HEAD 

 OUTPUT CONTROL FOR STRESS PERIOD    3   TIME STEP   46
    SAVE HEAD FOR ALL LAYERS
    SAVE DRAWDOWN FOR ALL LAYERS
    SAVE BUDGET
    PRINT HEAD FOR ALL LAYERS
    PRINT BUDGET
 UBDSV1 SAVING "         STORAGE" ON UNIT  53 AT TIME STEP 46, STRESS PERIOD   3
 UBDSV2 SAVING "   CONSTANT HEAD" ON UNIT  53 AT TIME STEP 46, STRESS PERIOD   3
 UBDSV1 SAVING "FLOW RIGHT FACE " ON UNIT  53 AT TIME STEP 46, STRESS PERIOD   3
 UBDSV1 SAVING "FLOW FRONT FACE " ON UNIT  53 AT TIME STEP 46, STRESS PERIOD   3
1
              HEAD IN LAYER   1 AT END OF TIME STEP  46 IN STRESS PERIOD    3
  ---------------------------------------------------------------------------

            1           2           3           4           5           6           7           8           9          10
 ........................................................................................................................
   1    9.997       9.649       9.230       8.675       7.921       6.918       5.621       4.016       2.126      2.1501E-02
   2    9.997       9.645       9.221       8.658       7.899       6.900       5.612       4.012       2.124      2.1484E-02
   3    9.996       9.637       9.200       8.615       7.835       6.857       5.589       4.002       2.121      2.1450E-02
   4    9.996       9.626       9.166       8.534       7.678       6.774       5.554       3.989       2.117      2.1407E-02
   5    9.996       9.618       9.139       8.431       7.257       6.667       5.525       3.980       2.114      2.1383E-02
   6    9.996       9.626       9.167       8.534       7.678       6.774       5.554       3.989       2.117      2.1407E-02
   7    9.996       9.637       9.200       8.616       7.836       6.857       5.589       4.002       2.121      2.1451E-02
   8    9.997       9.645       9.222       8.659       7.900       6.902       5.612       4.012       2.124      2.1486E-02
   9    9.997       9.650       9.233       8.679       7.926       6.921       5.624       4.018       2.126      2.1506E-02
  10    9.997       9.652       9.237       8.686       7.934       6.929       5.628       4.020       2.127      2.1514E-02

 HEAD WILL BE SAVED ON UNIT   51 AT END OF TIME STEP   46, STRESS PERIOD    3

 DRAWDOWN WILL BE SAVED ON UNIT   52 AT END OF TIME STEP   46, STRESS PERIOD    3
1
  VOLUMETRIC BUDGET FOR ENTIRE MODEL AT END OF TIME STEP   46, STRESS PERIOD   3
  ------------------------------------------------------------------------------

     CUMULATIVE VOLUMES      L**3       RATES FOR THIS TIME STEP      L**3/T
     ------------------                 ------------------------

           IN:                                      IN:
           ---                                      ---
             STORAGE =      361805.4062               STORAGE =         959.2527
       CONSTANT HEAD =           0.0000         CONSTANT HEAD =           0.0000
               WELLS =           0.0000                 WELLS =           0.0000
     HEAD DEP BOUNDS =        9477.3105       HEAD DEP BOUNDS =         213.6951

            TOTAL IN =      371282.7188              TOTAL IN =        1172.9479

          OUT:                                     OUT:
          ----                                     ----
             STORAGE =           0.0000               STORAGE =           0.0000
       CONSTANT HEAD =           0.0000         CONSTANT HEAD =           0.0000
               WELLS =        4600.0000                 WELLS =         100.0000
     HEAD DEP BOUNDS =      366682.7188       HEAD DEP BOUNDS =        1072.9432

           TOTAL OUT =      371282.7188             TOTAL OUT =        1172.9432

            IN - OUT =           0.0000              IN - OUT =       4.6387E-03

 PERCENT DISCREPANCY =           0.00     PERCENT DISCREPANCY =           0.00






         TIME SUMMARY AT END OF TIME STEP   46 IN STRESS PERIOD    3
                    SECONDS     MINUTES      HOURS       DAYS        YEARS
                    -----------------------------------------------------------
   TIME STEP LENGTH  86400.      1440.0      24.000      1.0000     2.73785E-03
 STRESS PERIOD TIME 3.97440E+06  66240.      1104.0      46.000     0.12594    
         TOTAL TIME 1.27008E+07 2.11680E+05  3528.0      147.00     0.40246    
1
 
 SOLVING FOR HEAD 

 OUTPUT CONTROL FOR STRESS PERIOD    3   TIME STEP   47
    SAVE HEAD FOR ALL LAYERS
    SAVE DRAWDOWN FOR ALL LAYERS
    SAVE BUDGET
    PRINT HEAD FOR ALL LAYERS
    PRINT BUDGET
 UBDSV1 SAVING "         STORAGE" ON UNIT  53 AT TIME STEP 47, STRESS PERIOD   3
 UBDSV2 SAVING "   CONSTANT HEAD" ON UNIT  53 AT TIME STEP 47, STRESS PERIOD   3
 UBDSV1 SAVING "FLOW RIGHT FACE " ON UNIT  53 AT TIME STEP 47, STRESS PERIOD   3
 UBDSV1 SAVING "FLOW FRONT FACE " ON UNIT  53 AT TIME STEP 47, STRESS PERIOD   3
1
              HEAD IN LAYER   1 AT END OF TIME STEP  47 IN STRESS PERIOD    3
  ---------------------------------------------------------------------------

            1           2           3           4           5           6           7           8           9          10
 ........................................................................................................................
   1    9.996       9.645       9.222       8.663       7.906       6.901       5.606       4.004       2.119      2.1427E-02
   2    9.996       9.641       9.212       8.645       7.883       6.884       5.596       3.999       2.117      2.1409E-02
   3    9.996       9.632       9.191       8.602       7.819       6.840       5.573       3.989       2.114      2.1374E-02
   4    9.996       9.621       9.157       8.521       7.661       6.756       5.537       3.976       2.109      2.1330E-02
   5    9.996       9.613       9.129       8.417       7.240       6.649       5.508       3.967       2.107      2.1305E-02
   6    9.996       9.621       9.157       8.521       7.661       6.756       5.537       3.976       2.109      2.1330E-02
   7    9.996       9.632       9.191       8.602       7.820       6.840       5.573       3.989       2.114      2.1375E-02
   8    9.996       9.641       9.213       8.647       7.885       6.885       5.597       4.000       2.117      2.1411E-02
   9    9.997       9.646       9.225       8.667       7.911       6.906       5.609       4.005       2.119      2.1433E-02
  10    9.997       9.648       9.229       8.674       7.920       6.913       5.613       4.007       2.120      2.1441E-02

 HEAD WILL BE SAVED ON UNIT   51 AT END OF TIME STEP   47, STRESS PERIOD    3

 DRAWDOWN WILL BE SAVED ON UNIT   52 AT END OF TIME STEP   47, STRESS PERIOD    3
1
  VOLUMETRIC BUDGET FOR ENTIRE MODEL AT END OF TIME STEP   47, STRESS PERIOD   3
  ------------------------------------------------------------------------------

     CUMULATIVE VOLUMES      L**3       RATES FOR THIS TIME STEP      L**3/T
     ------------------                 ------------------------

           IN:                                      IN:
           ---                                      ---
             STORAGE =      362758.2188               STORAGE =         952.7984
       CONSTANT HEAD =           0.0000         CONSTANT HEAD =           0.0000
               WELLS =           0.0000                 WELLS =           0.0000
     HEAD DEP BOUNDS =        9693.6846       HEAD DEP BOUNDS =         216.3743

            TOTAL IN =      372451.9062              TOTAL IN =        1169.1726

          OUT:                                     OUT:
          ----                                     ----
             STORAGE =           0.0000               STORAGE =           0.0000
       CONSTANT HEAD =           0.0000         CONSTANT HEAD =           0.0000
               WELLS =        4700.0000                 WELLS =         100.0000
     HEAD DEP BOUNDS =      367751.8750       HEAD DEP BOUNDS =        1069.1716

           TOTAL OUT =      372451.8750             TOTAL OUT =        1169.1716

            IN - OUT =       3.1250E-02              IN - OUT =       9.7656E-04

 PERCENT DISCREPANCY =           0.00     PERCENT DISCREPANCY =           0.00






         TIME SUMMARY AT END OF TIME STEP   47 IN STRESS PERIOD    3
                    SECONDS     MINUTES      HOURS       DAYS        YEARS
                    -----------------------------------------------------------
   TIME STEP LENGTH  86400.      1440.0      24.000      1.0000     2.73785E-03
 STRESS PERIOD TIME 4.06080E+06  67680.      1128.0      47.000     0.12868    
         TOTAL TIME 1.27872E+07 2.13120E+05  3552.0      148.00     0.40520    
1
 
 SOLVING FOR HEAD 

 OUTPUT CONTROL FOR STRESS PERIOD    3   TIME STEP   48
    SAVE HEAD FOR ALL LAYERS
    SAVE DRAWDOWN FOR ALL LAYERS
    SAVE BUDGET
    PRINT HEAD FOR ALL LAYERS
    PRINT BUDGET
 UBDSV1 SAVING "         STORAGE" ON UNIT  53 AT TIME STEP 48, STRESS PERIOD   3
 UBDSV2 SAVING "   CONSTANT HEAD" ON UNIT  53 AT TIME STEP 48, STRESS PERIOD   3
 UBDSV1 SAVING "FLOW RIGHT FACE " ON UNIT  53 AT TIME STEP 48, STRESS PERIOD   3
 UBDSV1 SAVING "FLOW FRONT FACE " ON UNIT  53 AT TIME STEP 48, STRESS PERIOD   3
1
              HEAD IN LAYER   1 AT END OF TIME STEP  48 IN STRESS PERIOD    3
  ---------------------------------------------------------------------------

            1           2           3           4           5           6           7           8           9          10
 ........................................................................................................................
   1    9.996       9.640       9.214       8.651       7.891       6.885       5.591       3.991       2.112      2.1354E-02
   2    9.996       9.636       9.204       8.633       7.868       6.867       5.580       3.987       2.110      2.1335E-02
   3    9.996       9.628       9.181       8.589       7.803       6.822       5.557       3.976       2.106      2.1299E-02
   4    9.996       9.616       9.147       8.507       7.644       6.738       5.521       3.963       2.102      2.1253E-02
   5    9.996       9.608       9.119       8.403       7.223       6.631       5.491       3.954       2.099      2.1227E-02
   6    9.996       9.616       9.147       8.507       7.644       6.738       5.521       3.963       2.102      2.1253E-02
   7    9.996       9.628       9.182       8.589       7.804       6.823       5.557       3.977       2.106      2.1299E-02
   8    9.996       9.637       9.205       8.634       7.870       6.869       5.581       3.987       2.110      2.1337E-02
   9    9.996       9.642       9.216       8.655       7.896       6.890       5.593       3.993       2.112      2.1360E-02
  10    9.996       9.644       9.221       8.662       7.906       6.897       5.598       3.995       2.113      2.1369E-02

 HEAD WILL BE SAVED ON UNIT   51 AT END OF TIME STEP   48, STRESS PERIOD    3

 DRAWDOWN WILL BE SAVED ON UNIT   52 AT END OF TIME STEP   48, STRESS PERIOD    3
1
  VOLUMETRIC BUDGET FOR ENTIRE MODEL AT END OF TIME STEP   48, STRESS PERIOD   3
  ------------------------------------------------------------------------------

     CUMULATIVE VOLUMES      L**3       RATES FOR THIS TIME STEP      L**3/T
     ------------------                 ------------------------

           IN:                                      IN:
           ---                                      ---
             STORAGE =      363704.5938               STORAGE =         946.3857
       CONSTANT HEAD =           0.0000         CONSTANT HEAD =           0.0000
               WELLS =           0.0000                 WELLS =           0.0000
     HEAD DEP BOUNDS =        9912.7324       HEAD DEP BOUNDS =         219.0475

            TOTAL IN =      373617.3125              TOTAL IN =        1165.4332

          OUT:                                     OUT:
          ----                                     ----
             STORAGE =           0.0000               STORAGE =           0.0000
       CONSTANT HEAD =           0.0000         CONSTANT HEAD =           0.0000
               WELLS =        4800.0000                 WELLS =         100.0000
     HEAD DEP BOUNDS =      368817.3125       HEAD DEP BOUNDS =        1065.4343

           TOTAL OUT =      373617.3125             TOTAL OUT =        1165.4343

            IN - OUT =           0.0000              IN - OUT =      -1.0986E-03

 PERCENT DISCREPANCY =           0.00     PERCENT DISCREPANCY =          -0.00






         TIME SUMMARY AT END OF TIME STEP   48 IN STRESS PERIOD    3
                    SECONDS     MINUTES      HOURS       DAYS        YEARS
                    -----------------------------------------------------------
   TIME STEP LENGTH  86400.      1440.0      24.000      1.0000     2.73785E-03
 STRESS PERIOD TIME 4.14720E+06  69120.      1152.0      48.000     0.13142    
         TOTAL TIME 1.28736E+07 2.14560E+05  3576.0      149.00     0.40794    
1
 
 SOLVING FOR HEAD 

 OUTPUT CONTROL FOR STRESS PERIOD    3   TIME STEP   49
    SAVE HEAD FOR ALL LAYERS
    SAVE DRAWDOWN FOR ALL LAYERS
    SAVE BUDGET
    PRINT HEAD FOR ALL LAYERS
    PRINT BUDGET
 UBDSV1 SAVING "         STORAGE" ON UNIT  53 AT TIME STEP 49, STRESS PERIOD   3
 UBDSV2 SAVING "   CONSTANT HEAD" ON UNIT  53 AT TIME STEP 49, STRESS PERIOD   3
 UBDSV1 SAVING "FLOW RIGHT FACE " ON UNIT  53 AT TIME STEP 49, STRESS PERIOD   3
 UBDSV1 SAVING "FLOW FRONT FACE " ON UNIT  53 AT TIME STEP 49, STRESS PERIOD   3
1
              HEAD IN LAYER   1 AT END OF TIME STEP  49 IN STRESS PERIOD    3
  ---------------------------------------------------------------------------

            1           2           3           4           5           6           7           8           9          10
 ........................................................................................................................
   1    9.996       9.636       9.205       8.638       7.877       6.869       5.575       3.979       2.105      2.1281E-02
   2    9.996       9.632       9.195       8.620       7.853       6.851       5.565       3.974       2.103      2.1262E-02
   3    9.996       9.623       9.172       8.576       7.788       6.805       5.541       3.964       2.099      2.1224E-02
   4    9.996       9.611       9.138       8.493       7.628       6.721       5.504       3.950       2.094      2.1177E-02
   5    9.996       9.603       9.109       8.389       7.206       6.613       5.474       3.940       2.092      2.1151E-02
   6    9.996       9.611       9.138       8.493       7.628       6.721       5.504       3.950       2.094      2.1177E-02
   7    9.996       9.623       9.173       8.576       7.788       6.806       5.541       3.964       2.099      2.1225E-02
   8    9.996       9.632       9.196       8.622       7.855       6.853       5.566       3.975       2.103      2.1264E-02
   9    9.996       9.637       9.208       8.643       7.882       6.874       5.578       3.981       2.105      2.1288E-02
  10    9.996       9.640       9.213       8.651       7.891       6.882       5.583       3.983       2.106      2.1298E-02

 HEAD WILL BE SAVED ON UNIT   51 AT END OF TIME STEP   49, STRESS PERIOD    3

 DRAWDOWN WILL BE SAVED ON UNIT   52 AT END OF TIME STEP   49, STRESS PERIOD    3
1
  VOLUMETRIC BUDGET FOR ENTIRE MODEL AT END OF TIME STEP   49, STRESS PERIOD   3
  ------------------------------------------------------------------------------

     CUMULATIVE VOLUMES      L**3       RATES FOR THIS TIME STEP      L**3/T
     ------------------                 ------------------------

           IN:                                      IN:
           ---                                      ---
             STORAGE =      364644.6250               STORAGE =         940.0182
       CONSTANT HEAD =           0.0000         CONSTANT HEAD =           0.0000
               WELLS =           0.0000                 WELLS =           0.0000
     HEAD DEP BOUNDS =       10134.4600       HEAD DEP BOUNDS =         221.7277

            TOTAL IN =      374779.0938              TOTAL IN =        1161.7460

          OUT:                                     OUT:
          ----                                     ----
             STORAGE =           0.0000               STORAGE =           0.0000
       CONSTANT HEAD =           0.0000         CONSTANT HEAD =           0.0000
               WELLS =        4900.0000                 WELLS =         100.0000
     HEAD DEP BOUNDS =      369879.0312       HEAD DEP BOUNDS =        1061.7324

           TOTAL OUT =      374779.0312             TOTAL OUT =        1161.7324

            IN - OUT =       6.2500E-02              IN - OUT =       1.3550E-02

 PERCENT DISCREPANCY =           0.00     PERCENT DISCREPANCY =           0.00






         TIME SUMMARY AT END OF TIME STEP   49 IN STRESS PERIOD    3
                    SECONDS     MINUTES      HOURS       DAYS        YEARS
                    -----------------------------------------------------------
   TIME STEP LENGTH  86400.      1440.0      24.000      1.0000     2.73785E-03
 STRESS PERIOD TIME 4.23360E+06  70560.      1176.0      49.000     0.13415    
         TOTAL TIME 1.29600E+07 2.16000E+05  3600.0      150.00     0.41068    
1
 
 SOLVING FOR HEAD 

 OUTPUT CONTROL FOR STRESS PERIOD    3   TIME STEP   50
    SAVE HEAD FOR ALL LAYERS
    SAVE DRAWDOWN FOR ALL LAYERS
    SAVE BUDGET
    PRINT HEAD FOR ALL LAYERS
    PRINT BUDGET
 UBDSV1 SAVING "         STORAGE" ON UNIT  53 AT TIME STEP 50, STRESS PERIOD   3
 UBDSV2 SAVING "   CONSTANT HEAD" ON UNIT  53 AT TIME STEP 50, STRESS PERIOD   3
 UBDSV1 SAVING "FLOW RIGHT FACE " ON UNIT  53 AT TIME STEP 50, STRESS PERIOD   3
 UBDSV1 SAVING "FLOW FRONT FACE " ON UNIT  53 AT TIME STEP 50, STRESS PERIOD   3
1
              HEAD IN LAYER   1 AT END OF TIME STEP  50 IN STRESS PERIOD    3
  ---------------------------------------------------------------------------

            1           2           3           4           5           6           7           8           9          10
 ........................................................................................................................
   1    9.996       9.632       9.197       8.626       7.862       6.853       5.560       3.967       2.098      2.1209E-02
   2    9.996       9.627       9.186       8.608       7.838       6.835       5.549       3.962       2.096      2.1189E-02
   3    9.996       9.618       9.163       8.563       7.772       6.789       5.525       3.951       2.092      2.1150E-02
   4    9.996       9.606       9.128       8.480       7.611       6.703       5.488       3.937       2.087      2.1102E-02
   5    9.996       9.598       9.100       8.375       7.189       6.595       5.457       3.927       2.084      2.1075E-02
   6    9.996       9.606       9.129       8.480       7.611       6.703       5.488       3.937       2.087      2.1102E-02
   7    9.996       9.619       9.164       8.564       7.772       6.789       5.525       3.951       2.092      2.1151E-02
   8    9.996       9.628       9.188       8.610       7.840       6.836       5.550       3.962       2.096      2.1192E-02
   9    9.996       9.633       9.200       8.631       7.867       6.858       5.563       3.969       2.098      2.1216E-02
  10    9.996       9.635       9.205       8.639       7.877       6.866       5.568       3.971       2.099      2.1227E-02

 HEAD WILL BE SAVED ON UNIT   51 AT END OF TIME STEP   50, STRESS PERIOD    3

 DRAWDOWN WILL BE SAVED ON UNIT   52 AT END OF TIME STEP   50, STRESS PERIOD    3
1
  VOLUMETRIC BUDGET FOR ENTIRE MODEL AT END OF TIME STEP   50, STRESS PERIOD   3
  ------------------------------------------------------------------------------

     CUMULATIVE VOLUMES      L**3       RATES FOR THIS TIME STEP      L**3/T
     ------------------                 ------------------------

           IN:                                      IN:
           ---                                      ---
             STORAGE =      365578.3125               STORAGE =         933.6860
       CONSTANT HEAD =           0.0000         CONSTANT HEAD =           0.0000
               WELLS =           0.0000                 WELLS =           0.0000
     HEAD DEP BOUNDS =       10358.8350       HEAD DEP BOUNDS =         224.3748

            TOTAL IN =      375937.1562              TOTAL IN =        1158.0608

          OUT:                                     OUT:
          ----                                     ----
             STORAGE =           0.0000               STORAGE =           0.0000
       CONSTANT HEAD =           0.0000         CONSTANT HEAD =           0.0000
               WELLS =        5000.0000                 WELLS =         100.0000
     HEAD DEP BOUNDS =      370937.0938       HEAD DEP BOUNDS =        1058.0625

           TOTAL OUT =      375937.0938             TOTAL OUT =        1158.0625

            IN - OUT =       6.2500E-02              IN - OUT =      -1.7090E-03

 PERCENT DISCREPANCY =           0.00     PERCENT DISCREPANCY =          -0.00






         TIME SUMMARY AT END OF TIME STEP   50 IN STRESS PERIOD    3
                    SECONDS     MINUTES      HOURS       DAYS        YEARS
                    -----------------------------------------------------------
   TIME STEP LENGTH  86400.      1440.0      24.000      1.0000     2.73785E-03
 STRESS PERIOD TIME 4.32000E+06  72000.      1200.0      50.000     0.13689    
         TOTAL TIME 1.30464E+07 2.17440E+05  3624.0      151.00     0.41342    
1
 
 SOLVING FOR HEAD 

 OUTPUT CONTROL FOR STRESS PERIOD    3   TIME STEP   51
    SAVE HEAD FOR ALL LAYERS
    SAVE DRAWDOWN FOR ALL LAYERS
    SAVE BUDGET
    PRINT HEAD FOR ALL LAYERS
    PRINT BUDGET
 UBDSV1 SAVING "         STORAGE" ON UNIT  53 AT TIME STEP 51, STRESS PERIOD   3
 UBDSV2 SAVING "   CONSTANT HEAD" ON UNIT  53 AT TIME STEP 51, STRESS PERIOD   3
 UBDSV1 SAVING "FLOW RIGHT FACE " ON UNIT  53 AT TIME STEP 51, STRESS PERIOD   3
 UBDSV1 SAVING "FLOW FRONT FACE " ON UNIT  53 AT TIME STEP 51, STRESS PERIOD   3
1
              HEAD IN LAYER   1 AT END OF TIME STEP  51 IN STRESS PERIOD    3
  ---------------------------------------------------------------------------

            1           2           3           4           5           6           7           8           9          10
 ........................................................................................................................
   1    9.996       9.627       9.188       8.614       7.847       6.838       5.545       3.955       2.091      2.1138E-02
   2    9.996       9.623       9.178       8.596       7.823       6.819       5.534       3.950       2.089      2.1117E-02
   3    9.996       9.614       9.154       8.550       7.756       6.772       5.509       3.939       2.085      2.1077E-02
   4    9.996       9.602       9.119       8.466       7.595       6.686       5.472       3.924       2.080      2.1027E-02
   5    9.996       9.594       9.090       8.362       7.173       6.578       5.441       3.915       2.077      2.1000E-02
   6    9.996       9.602       9.119       8.467       7.595       6.686       5.472       3.924       2.080      2.1027E-02
   7    9.996       9.614       9.155       8.551       7.757       6.772       5.510       3.939       2.085      2.1077E-02
   8    9.996       9.624       9.179       8.598       7.825       6.820       5.535       3.950       2.089      2.1120E-02
   9    9.996       9.629       9.192       8.620       7.853       6.843       5.548       3.957       2.091      2.1146E-02
  10    9.996       9.631       9.197       8.628       7.863       6.851       5.554       3.960       2.093      2.1156E-02

 HEAD WILL BE SAVED ON UNIT   51 AT END OF TIME STEP   51, STRESS PERIOD    3

 DRAWDOWN WILL BE SAVED ON UNIT   52 AT END OF TIME STEP   51, STRESS PERIOD    3
1
  VOLUMETRIC BUDGET FOR ENTIRE MODEL AT END OF TIME STEP   51, STRESS PERIOD   3
  ------------------------------------------------------------------------------

     CUMULATIVE VOLUMES      L**3       RATES FOR THIS TIME STEP      L**3/T
     ------------------                 ------------------------

           IN:                                      IN:
           ---                                      ---
             STORAGE =      366505.7188               STORAGE =         927.3920
       CONSTANT HEAD =           0.0000         CONSTANT HEAD =           0.0000
               WELLS =           0.0000                 WELLS =           0.0000
     HEAD DEP BOUNDS =       10585.8496       HEAD DEP BOUNDS =         227.0151

            TOTAL IN =      377091.5625              TOTAL IN =        1154.4071

          OUT:                                     OUT:
          ----                                     ----
             STORAGE =           0.0000               STORAGE =           0.0000
       CONSTANT HEAD =           0.0000         CONSTANT HEAD =           0.0000
               WELLS =        5100.0000                 WELLS =         100.0000
     HEAD DEP BOUNDS =      371991.5312       HEAD DEP BOUNDS =        1054.4231

           TOTAL OUT =      377091.5312             TOTAL OUT =        1154.4231

            IN - OUT =       3.1250E-02              IN - OUT =      -1.5991E-02

 PERCENT DISCREPANCY =           0.00     PERCENT DISCREPANCY =          -0.00






         TIME SUMMARY AT END OF TIME STEP   51 IN STRESS PERIOD    3
                    SECONDS     MINUTES      HOURS       DAYS        YEARS
                    -----------------------------------------------------------
   TIME STEP LENGTH  86400.      1440.0      24.000      1.0000     2.73785E-03
 STRESS PERIOD TIME 4.40640E+06  73440.      1224.0      51.000     0.13963    
         TOTAL TIME 1.31328E+07 2.18880E+05  3648.0      152.00     0.41615    
1
 
 SOLVING FOR HEAD 

 OUTPUT CONTROL FOR STRESS PERIOD    3   TIME STEP   52
    SAVE HEAD FOR ALL LAYERS
    SAVE DRAWDOWN FOR ALL LAYERS
    SAVE BUDGET
    PRINT HEAD FOR ALL LAYERS
    PRINT BUDGET
 UBDSV1 SAVING "         STORAGE" ON UNIT  53 AT TIME STEP 52, STRESS PERIOD   3
 UBDSV2 SAVING "   CONSTANT HEAD" ON UNIT  53 AT TIME STEP 52, STRESS PERIOD   3
 UBDSV1 SAVING "FLOW RIGHT FACE " ON UNIT  53 AT TIME STEP 52, STRESS PERIOD   3
 UBDSV1 SAVING "FLOW FRONT FACE " ON UNIT  53 AT TIME STEP 52, STRESS PERIOD   3
1
              HEAD IN LAYER   1 AT END OF TIME STEP  52 IN STRESS PERIOD    3
  ---------------------------------------------------------------------------

            1           2           3           4           5           6           7           8           9          10
 ........................................................................................................................
   1    9.996       9.623       9.180       8.603       7.833       6.822       5.530       3.943       2.084      2.1067E-02
   2    9.996       9.619       9.169       8.584       7.808       6.802       5.519       3.937       2.082      2.1046E-02
   3    9.996       9.609       9.145       8.537       7.741       6.755       5.494       3.926       2.078      2.1004E-02
   4    9.996       9.597       9.110       8.453       7.579       6.668       5.456       3.911       2.073      2.0953E-02
   5    9.996       9.589       9.081       8.348       7.156       6.560       5.425       3.902       2.070      2.0925E-02
   6    9.996       9.597       9.110       8.453       7.579       6.669       5.456       3.911       2.073      2.0953E-02
   7    9.996       9.609       9.146       8.538       7.741       6.756       5.494       3.926       2.078      2.1005E-02
   8    9.996       9.619       9.171       8.585       7.810       6.804       5.520       3.938       2.082      2.1049E-02
   9    9.996       9.625       9.184       8.608       7.839       6.827       5.534       3.945       2.085      2.1075E-02
  10    9.996       9.627       9.189       8.616       7.849       6.836       5.539       3.948       2.086      2.1087E-02

 HEAD WILL BE SAVED ON UNIT   51 AT END OF TIME STEP   52, STRESS PERIOD    3

 DRAWDOWN WILL BE SAVED ON UNIT   52 AT END OF TIME STEP   52, STRESS PERIOD    3
1
  VOLUMETRIC BUDGET FOR ENTIRE MODEL AT END OF TIME STEP   52, STRESS PERIOD   3
  ------------------------------------------------------------------------------

     CUMULATIVE VOLUMES      L**3       RATES FOR THIS TIME STEP      L**3/T
     ------------------                 ------------------------

           IN:                                      IN:
           ---                                      ---
             STORAGE =      367426.8750               STORAGE =         921.1523
       CONSTANT HEAD =           0.0000         CONSTANT HEAD =           0.0000
               WELLS =           0.0000                 WELLS =           0.0000
     HEAD DEP BOUNDS =       10815.5244       HEAD DEP BOUNDS =         229.6748

            TOTAL IN =      378242.4062              TOTAL IN =        1150.8271

          OUT:                                     OUT:
          ----                                     ----
             STORAGE =           0.0000               STORAGE =           0.0000
       CONSTANT HEAD =           0.0000         CONSTANT HEAD =           0.0000
               WELLS =        5200.0000                 WELLS =         100.0000
     HEAD DEP BOUNDS =      373042.3438       HEAD DEP BOUNDS =        1050.8214

           TOTAL OUT =      378242.3438             TOTAL OUT =        1150.8214

            IN - OUT =       6.2500E-02              IN - OUT =       5.7373E-03

 PERCENT DISCREPANCY =           0.00     PERCENT DISCREPANCY =           0.00






         TIME SUMMARY AT END OF TIME STEP   52 IN STRESS PERIOD    3
                    SECONDS     MINUTES      HOURS       DAYS        YEARS
                    -----------------------------------------------------------
   TIME STEP LENGTH  86400.      1440.0      24.000      1.0000     2.73785E-03
 STRESS PERIOD TIME 4.49280E+06  74880.      1248.0      52.000     0.14237    
         TOTAL TIME 1.32192E+07 2.20320E+05  3672.0      153.00     0.41889    
1
 
 SOLVING FOR HEAD 

 OUTPUT CONTROL FOR STRESS PERIOD    3   TIME STEP   53
    SAVE HEAD FOR ALL LAYERS
    SAVE DRAWDOWN FOR ALL LAYERS
    SAVE BUDGET
    PRINT HEAD FOR ALL LAYERS
    PRINT BUDGET
 UBDSV1 SAVING "         STORAGE" ON UNIT  53 AT TIME STEP 53, STRESS PERIOD   3
 UBDSV2 SAVING "   CONSTANT HEAD" ON UNIT  53 AT TIME STEP 53, STRESS PERIOD   3
 UBDSV1 SAVING "FLOW RIGHT FACE " ON UNIT  53 AT TIME STEP 53, STRESS PERIOD   3
 UBDSV1 SAVING "FLOW FRONT FACE " ON UNIT  53 AT TIME STEP 53, STRESS PERIOD   3
1
              HEAD IN LAYER   1 AT END OF TIME STEP  53 IN STRESS PERIOD    3
  ---------------------------------------------------------------------------

            1           2           3           4           5           6           7           8           9          10
 ........................................................................................................................
   1    9.996       9.619       9.172       8.591       7.818       6.806       5.515       3.931       2.077      2.0997E-02
   2    9.996       9.614       9.161       8.571       7.793       6.787       5.504       3.925       2.075      2.0975E-02
   3    9.996       9.605       9.137       8.525       7.725       6.739       5.478       3.914       2.071      2.0932E-02
   4    9.996       9.592       9.101       8.440       7.563       6.651       5.440       3.899       2.066      2.0880E-02
   5    9.996       9.584       9.071       8.335       7.140       6.543       5.409       3.889       2.063      2.0851E-02
   6    9.996       9.592       9.101       8.440       7.563       6.652       5.440       3.899       2.066      2.0880E-02
   7    9.996       9.605       9.137       8.525       7.726       6.739       5.478       3.914       2.071      2.0933E-02
   8    9.996       9.615       9.162       8.573       7.795       6.788       5.505       3.926       2.075      2.0978E-02
   9    9.996       9.621       9.175       8.596       7.825       6.812       5.519       3.933       2.078      2.1006E-02
  10    9.996       9.623       9.181       8.605       7.835       6.821       5.525       3.936       2.079      2.1018E-02

 HEAD WILL BE SAVED ON UNIT   51 AT END OF TIME STEP   53, STRESS PERIOD    3

 DRAWDOWN WILL BE SAVED ON UNIT   52 AT END OF TIME STEP   53, STRESS PERIOD    3
1
  VOLUMETRIC BUDGET FOR ENTIRE MODEL AT END OF TIME STEP   53, STRESS PERIOD   3
  ------------------------------------------------------------------------------

     CUMULATIVE VOLUMES      L**3       RATES FOR THIS TIME STEP      L**3/T
     ------------------                 ------------------------

           IN:                                      IN:
           ---                                      ---
             STORAGE =      368341.8125               STORAGE =         914.9438
       CONSTANT HEAD =           0.0000         CONSTANT HEAD =           0.0000
               WELLS =           0.0000                 WELLS =           0.0000
     HEAD DEP BOUNDS =       11047.8184       HEAD DEP BOUNDS =         232.2941

            TOTAL IN =      379389.6250              TOTAL IN =        1147.2378

          OUT:                                     OUT:
          ----                                     ----
             STORAGE =           0.0000               STORAGE =           0.0000
       CONSTANT HEAD =           0.0000         CONSTANT HEAD =           0.0000
               WELLS =        5300.0000                 WELLS =         100.0000
     HEAD DEP BOUNDS =      374089.5938       HEAD DEP BOUNDS =        1047.2505

           TOTAL OUT =      379389.5938             TOTAL OUT =        1147.2505

            IN - OUT =       3.1250E-02              IN - OUT =      -1.2695E-02

 PERCENT DISCREPANCY =           0.00     PERCENT DISCREPANCY =          -0.00






         TIME SUMMARY AT END OF TIME STEP   53 IN STRESS PERIOD    3
                    SECONDS     MINUTES      HOURS       DAYS        YEARS
                    -----------------------------------------------------------
   TIME STEP LENGTH  86400.      1440.0      24.000      1.0000     2.73785E-03
 STRESS PERIOD TIME 4.57920E+06  76320.      1272.0      53.000     0.14511    
         TOTAL TIME 1.33056E+07 2.21760E+05  3696.0      154.00     0.42163    
1
 
 SOLVING FOR HEAD 

 OUTPUT CONTROL FOR STRESS PERIOD    3   TIME STEP   54
    SAVE HEAD FOR ALL LAYERS
    SAVE DRAWDOWN FOR ALL LAYERS
    SAVE BUDGET
    PRINT HEAD FOR ALL LAYERS
    PRINT BUDGET
 UBDSV1 SAVING "         STORAGE" ON UNIT  53 AT TIME STEP 54, STRESS PERIOD   3
 UBDSV2 SAVING "   CONSTANT HEAD" ON UNIT  53 AT TIME STEP 54, STRESS PERIOD   3
 UBDSV1 SAVING "FLOW RIGHT FACE " ON UNIT  53 AT TIME STEP 54, STRESS PERIOD   3
 UBDSV1 SAVING "FLOW FRONT FACE " ON UNIT  53 AT TIME STEP 54, STRESS PERIOD   3
1
              HEAD IN LAYER   1 AT END OF TIME STEP  54 IN STRESS PERIOD    3
  ---------------------------------------------------------------------------

            1           2           3           4           5           6           7           8           9          10
 ........................................................................................................................
   1    9.996       9.615       9.164       8.579       7.804       6.791       5.501       3.919       2.070      2.0928E-02
   2    9.996       9.610       9.152       8.559       7.778       6.771       5.489       3.913       2.068      2.0905E-02
   3    9.996       9.600       9.128       8.512       7.710       6.722       5.463       3.902       2.064      2.0860E-02
   4    9.996       9.587       9.091       8.427       7.547       6.635       5.424       3.886       2.058      2.0807E-02
   5    9.996       9.579       9.062       8.321       7.123       6.526       5.393       3.877       2.056      2.0778E-02
   6    9.996       9.587       9.092       8.427       7.547       6.635       5.424       3.886       2.059      2.0807E-02
   7    9.996       9.600       9.128       8.513       7.711       6.723       5.463       3.902       2.064      2.0862E-02
   8    9.996       9.611       9.154       8.561       7.781       6.773       5.490       3.914       2.068      2.0908E-02
   9    9.996       9.616       9.167       8.585       7.810       6.797       5.505       3.922       2.071      2.0937E-02
  10    9.996       9.619       9.173       8.594       7.821       6.806       5.510       3.925       2.072      2.0950E-02

 HEAD WILL BE SAVED ON UNIT   51 AT END OF TIME STEP   54, STRESS PERIOD    3

 DRAWDOWN WILL BE SAVED ON UNIT   52 AT END OF TIME STEP   54, STRESS PERIOD    3
1
  VOLUMETRIC BUDGET FOR ENTIRE MODEL AT END OF TIME STEP   54, STRESS PERIOD   3
  ------------------------------------------------------------------------------

     CUMULATIVE VOLUMES      L**3       RATES FOR THIS TIME STEP      L**3/T
     ------------------                 ------------------------

           IN:                                      IN:
           ---                                      ---
             STORAGE =      369250.5938               STORAGE =         908.7846
       CONSTANT HEAD =           0.0000         CONSTANT HEAD =           0.0000
               WELLS =           0.0000                 WELLS =           0.0000
     HEAD DEP BOUNDS =       11282.7373       HEAD DEP BOUNDS =         234.9189

            TOTAL IN =      380533.3438              TOTAL IN =        1143.7035

          OUT:                                     OUT:
          ----                                     ----
             STORAGE =           0.0000               STORAGE =           0.0000
       CONSTANT HEAD =           0.0000         CONSTANT HEAD =           0.0000
               WELLS =        5400.0000                 WELLS =         100.0000
     HEAD DEP BOUNDS =      375133.3125       HEAD DEP BOUNDS =        1043.7109

           TOTAL OUT =      380533.3125             TOTAL OUT =        1143.7109

            IN - OUT =       3.1250E-02              IN - OUT =      -7.4463E-03

 PERCENT DISCREPANCY =           0.00     PERCENT DISCREPANCY =          -0.00






         TIME SUMMARY AT END OF TIME STEP   54 IN STRESS PERIOD    3
                    SECONDS     MINUTES      HOURS       DAYS        YEARS
                    -----------------------------------------------------------
   TIME STEP LENGTH  86400.      1440.0      24.000      1.0000     2.73785E-03
 STRESS PERIOD TIME 4.66560E+06  77760.      1296.0      54.000     0.14784    
         TOTAL TIME 1.33920E+07 2.23200E+05  3720.0      155.00     0.42437    
1
 
 SOLVING FOR HEAD 

 OUTPUT CONTROL FOR STRESS PERIOD    3   TIME STEP   55
    SAVE HEAD FOR ALL LAYERS
    SAVE DRAWDOWN FOR ALL LAYERS
    SAVE BUDGET
    PRINT HEAD FOR ALL LAYERS
    PRINT BUDGET
 UBDSV1 SAVING "         STORAGE" ON UNIT  53 AT TIME STEP 55, STRESS PERIOD   3
 UBDSV2 SAVING "   CONSTANT HEAD" ON UNIT  53 AT TIME STEP 55, STRESS PERIOD   3
 UBDSV1 SAVING "FLOW RIGHT FACE " ON UNIT  53 AT TIME STEP 55, STRESS PERIOD   3
 UBDSV1 SAVING "FLOW FRONT FACE " ON UNIT  53 AT TIME STEP 55, STRESS PERIOD   3
1
              HEAD IN LAYER   1 AT END OF TIME STEP  55 IN STRESS PERIOD    3
  ---------------------------------------------------------------------------

            1           2           3           4           5           6           7           8           9          10
 ........................................................................................................................
   1    9.996       9.610       9.155       8.567       7.789       6.775       5.486       3.908       2.064      2.0859E-02
   2    9.996       9.605       9.144       8.547       7.764       6.755       5.474       3.902       2.061      2.0835E-02
   3    9.996       9.596       9.119       8.500       7.695       6.706       5.447       3.890       2.057      2.0789E-02
   4    9.996       9.583       9.082       8.414       7.531       6.618       5.408       3.874       2.052      2.0735E-02
   5    9.996       9.574       9.053       8.308       7.107       6.509       5.377       3.864       2.049      2.0705E-02
   6    9.996       9.583       9.082       8.414       7.531       6.618       5.408       3.874       2.052      2.0735E-02
   7    9.996       9.596       9.119       8.500       7.695       6.707       5.448       3.890       2.057      2.0791E-02
   8    9.996       9.606       9.145       8.549       7.766       6.757       5.475       3.903       2.062      2.0839E-02
   9    9.996       9.612       9.159       8.573       7.796       6.781       5.490       3.910       2.065      2.0869E-02
  10    9.996       9.615       9.165       8.582       7.807       6.791       5.496       3.913       2.066      2.0882E-02

 HEAD WILL BE SAVED ON UNIT   51 AT END OF TIME STEP   55, STRESS PERIOD    3

 DRAWDOWN WILL BE SAVED ON UNIT   52 AT END OF TIME STEP   55, STRESS PERIOD    3
1
  VOLUMETRIC BUDGET FOR ENTIRE MODEL AT END OF TIME STEP   55, STRESS PERIOD   3
  ------------------------------------------------------------------------------

     CUMULATIVE VOLUMES      L**3       RATES FOR THIS TIME STEP      L**3/T
     ------------------                 ------------------------

           IN:                                      IN:
           ---                                      ---
             STORAGE =      370153.2500               STORAGE =         902.6557
       CONSTANT HEAD =           0.0000         CONSTANT HEAD =           0.0000
               WELLS =           0.0000                 WELLS =           0.0000
     HEAD DEP BOUNDS =       11520.2803       HEAD DEP BOUNDS =         237.5426

            TOTAL IN =      381673.5312              TOTAL IN =        1140.1982

          OUT:                                     OUT:
          ----                                     ----
             STORAGE =           0.0000               STORAGE =           0.0000
       CONSTANT HEAD =           0.0000         CONSTANT HEAD =           0.0000
               WELLS =        5500.0000                 WELLS =         100.0000
     HEAD DEP BOUNDS =      376173.5000       HEAD DEP BOUNDS =        1040.1998

           TOTAL OUT =      381673.5000             TOTAL OUT =        1140.1998

            IN - OUT =       3.1250E-02              IN - OUT =      -1.5869E-03

 PERCENT DISCREPANCY =           0.00     PERCENT DISCREPANCY =          -0.00






         TIME SUMMARY AT END OF TIME STEP   55 IN STRESS PERIOD    3
                    SECONDS     MINUTES      HOURS       DAYS        YEARS
                    -----------------------------------------------------------
   TIME STEP LENGTH  86400.      1440.0      24.000      1.0000     2.73785E-03
 STRESS PERIOD TIME 4.75200E+06  79200.      1320.0      55.000     0.15058    
         TOTAL TIME 1.34784E+07 2.24640E+05  3744.0      156.00     0.42710    
1
 
 SOLVING FOR HEAD 

 OUTPUT CONTROL FOR STRESS PERIOD    3   TIME STEP   56
    SAVE HEAD FOR ALL LAYERS
    SAVE DRAWDOWN FOR ALL LAYERS
    SAVE BUDGET
    PRINT HEAD FOR ALL LAYERS
    PRINT BUDGET
 UBDSV1 SAVING "         STORAGE" ON UNIT  53 AT TIME STEP 56, STRESS PERIOD   3
 UBDSV2 SAVING "   CONSTANT HEAD" ON UNIT  53 AT TIME STEP 56, STRESS PERIOD   3
 UBDSV1 SAVING "FLOW RIGHT FACE " ON UNIT  53 AT TIME STEP 56, STRESS PERIOD   3
 UBDSV1 SAVING "FLOW FRONT FACE " ON UNIT  53 AT TIME STEP 56, STRESS PERIOD   3
1
              HEAD IN LAYER   1 AT END OF TIME STEP  56 IN STRESS PERIOD    3
  ---------------------------------------------------------------------------

            1           2           3           4           5           6           7           8           9          10
 ........................................................................................................................
   1    9.996       9.606       9.147       8.555       7.775       6.760       5.471       3.896       2.057      2.0791E-02
   2    9.996       9.601       9.135       8.535       7.749       6.739       5.459       3.890       2.055      2.0766E-02
   3    9.996       9.591       9.110       8.487       7.680       6.690       5.432       3.878       2.050      2.0719E-02
   4    9.996       9.578       9.073       8.401       7.515       6.601       5.393       3.862       2.045      2.0663E-02
   5    9.996       9.570       9.044       8.295       7.091       6.492       5.361       3.852       2.042      2.0634E-02
   6    9.996       9.578       9.073       8.401       7.516       6.601       5.393       3.862       2.045      2.0664E-02
   7    9.996       9.591       9.111       8.488       7.680       6.691       5.433       3.878       2.050      2.0721E-02
   8    9.996       9.602       9.137       8.537       7.752       6.742       5.461       3.891       2.055      2.0770E-02
   9    9.996       9.608       9.151       8.562       7.782       6.766       5.476       3.898       2.058      2.0801E-02
  10    9.996       9.611       9.157       8.571       7.794       6.776       5.482       3.902       2.059      2.0815E-02

 HEAD WILL BE SAVED ON UNIT   51 AT END OF TIME STEP   56, STRESS PERIOD    3

 DRAWDOWN WILL BE SAVED ON UNIT   52 AT END OF TIME STEP   56, STRESS PERIOD    3
1
  VOLUMETRIC BUDGET FOR ENTIRE MODEL AT END OF TIME STEP   56, STRESS PERIOD   3
  ------------------------------------------------------------------------------

     CUMULATIVE VOLUMES      L**3       RATES FOR THIS TIME STEP      L**3/T
     ------------------                 ------------------------

           IN:                                      IN:
           ---                                      ---
             STORAGE =      371049.8125               STORAGE =         896.5682
       CONSTANT HEAD =           0.0000         CONSTANT HEAD =           0.0000
               WELLS =           0.0000                 WELLS =           0.0000
     HEAD DEP BOUNDS =       11760.4385       HEAD DEP BOUNDS =         240.1583

            TOTAL IN =      382810.2500              TOTAL IN =        1136.7266

          OUT:                                     OUT:
          ----                                     ----
             STORAGE =           0.0000               STORAGE =           0.0000
       CONSTANT HEAD =           0.0000         CONSTANT HEAD =           0.0000
               WELLS =        5600.0000                 WELLS =         100.0000
     HEAD DEP BOUNDS =      377210.2188       HEAD DEP BOUNDS =        1036.7218

           TOTAL OUT =      382810.2188             TOTAL OUT =        1136.7218

            IN - OUT =       3.1250E-02              IN - OUT =       4.7607E-03

 PERCENT DISCREPANCY =           0.00     PERCENT DISCREPANCY =           0.00






         TIME SUMMARY AT END OF TIME STEP   56 IN STRESS PERIOD    3
                    SECONDS     MINUTES      HOURS       DAYS        YEARS
                    -----------------------------------------------------------
   TIME STEP LENGTH  86400.      1440.0      24.000      1.0000     2.73785E-03
 STRESS PERIOD TIME 4.83840E+06  80640.      1344.0      56.000     0.15332    
         TOTAL TIME 1.35648E+07 2.26080E+05  3768.0      157.00     0.42984    
1
 
 SOLVING FOR HEAD 

 OUTPUT CONTROL FOR STRESS PERIOD    3   TIME STEP   57
    SAVE HEAD FOR ALL LAYERS
    SAVE DRAWDOWN FOR ALL LAYERS
    SAVE BUDGET
    PRINT HEAD FOR ALL LAYERS
    PRINT BUDGET
 UBDSV1 SAVING "         STORAGE" ON UNIT  53 AT TIME STEP 57, STRESS PERIOD   3
 UBDSV2 SAVING "   CONSTANT HEAD" ON UNIT  53 AT TIME STEP 57, STRESS PERIOD   3
 UBDSV1 SAVING "FLOW RIGHT FACE " ON UNIT  53 AT TIME STEP 57, STRESS PERIOD   3
 UBDSV1 SAVING "FLOW FRONT FACE " ON UNIT  53 AT TIME STEP 57, STRESS PERIOD   3
1
              HEAD IN LAYER   1 AT END OF TIME STEP  57 IN STRESS PERIOD    3
  ---------------------------------------------------------------------------

            1           2           3           4           5           6           7           8           9          10
 ........................................................................................................................
   1    9.996       9.602       9.139       8.544       7.761       6.745       5.457       3.885       2.050      2.0723E-02
   2    9.996       9.597       9.127       8.523       7.735       6.724       5.444       3.878       2.048      2.0698E-02
   3    9.996       9.587       9.101       8.475       7.664       6.674       5.417       3.866       2.043      2.0650E-02
   4    9.996       9.573       9.064       8.388       7.500       6.585       5.377       3.850       2.038      2.0593E-02
   5    9.996       9.565       9.034       8.282       7.075       6.475       5.346       3.840       2.035      2.0562E-02
   6    9.996       9.573       9.064       8.388       7.500       6.585       5.378       3.850       2.038      2.0593E-02
   7    9.996       9.587       9.102       8.475       7.665       6.675       5.418       3.866       2.043      2.0651E-02
   8    9.996       9.598       9.129       8.526       7.737       6.726       5.446       3.879       2.048      2.0702E-02
   9    9.996       9.604       9.143       8.550       7.768       6.751       5.462       3.887       2.052      2.0734E-02
  10    9.996       9.607       9.149       8.560       7.780       6.761       5.468       3.891       2.053      2.0749E-02

 HEAD WILL BE SAVED ON UNIT   51 AT END OF TIME STEP   57, STRESS PERIOD    3

 DRAWDOWN WILL BE SAVED ON UNIT   52 AT END OF TIME STEP   57, STRESS PERIOD    3
1
  VOLUMETRIC BUDGET FOR ENTIRE MODEL AT END OF TIME STEP   57, STRESS PERIOD   3
  ------------------------------------------------------------------------------

     CUMULATIVE VOLUMES      L**3       RATES FOR THIS TIME STEP      L**3/T
     ------------------                 ------------------------

           IN:                                      IN:
           ---                                      ---
             STORAGE =      371940.3438               STORAGE =         890.5236
       CONSTANT HEAD =           0.0000         CONSTANT HEAD =           0.0000
               WELLS =           0.0000                 WELLS =           0.0000
     HEAD DEP BOUNDS =       12003.1973       HEAD DEP BOUNDS =         242.7591

            TOTAL IN =      383943.5312              TOTAL IN =        1133.2827

          OUT:                                     OUT:
          ----                                     ----
             STORAGE =           0.0000               STORAGE =           0.0000
       CONSTANT HEAD =           0.0000         CONSTANT HEAD =           0.0000
               WELLS =        5700.0000                 WELLS =         100.0000
     HEAD DEP BOUNDS =      378243.5000       HEAD DEP BOUNDS =        1033.2764

           TOTAL OUT =      383943.5000             TOTAL OUT =        1133.2764

            IN - OUT =       3.1250E-02              IN - OUT =       6.3477E-03

 PERCENT DISCREPANCY =           0.00     PERCENT DISCREPANCY =           0.00






         TIME SUMMARY AT END OF TIME STEP   57 IN STRESS PERIOD    3
                    SECONDS     MINUTES      HOURS       DAYS        YEARS
                    -----------------------------------------------------------
   TIME STEP LENGTH  86400.      1440.0      24.000      1.0000     2.73785E-03
 STRESS PERIOD TIME 4.92480E+06  82080.      1368.0      57.000     0.15606    
         TOTAL TIME 1.36512E+07 2.27520E+05  3792.0      158.00     0.43258    
1
 
 SOLVING FOR HEAD 

 OUTPUT CONTROL FOR STRESS PERIOD    3   TIME STEP   58
    SAVE HEAD FOR ALL LAYERS
    SAVE DRAWDOWN FOR ALL LAYERS
    SAVE BUDGET
    PRINT HEAD FOR ALL LAYERS
    PRINT BUDGET
 UBDSV1 SAVING "         STORAGE" ON UNIT  53 AT TIME STEP 58, STRESS PERIOD   3
 UBDSV2 SAVING "   CONSTANT HEAD" ON UNIT  53 AT TIME STEP 58, STRESS PERIOD   3
 UBDSV1 SAVING "FLOW RIGHT FACE " ON UNIT  53 AT TIME STEP 58, STRESS PERIOD   3
 UBDSV1 SAVING "FLOW FRONT FACE " ON UNIT  53 AT TIME STEP 58, STRESS PERIOD   3
1
              HEAD IN LAYER   1 AT END OF TIME STEP  58 IN STRESS PERIOD    3
  ---------------------------------------------------------------------------

            1           2           3           4           5           6           7           8           9          10
 ........................................................................................................................
   1    9.996       9.598       9.131       8.532       7.747       6.730       5.443       3.873       2.044      2.0656E-02
   2    9.996       9.593       9.118       8.511       7.720       6.708       5.430       3.867       2.041      2.0630E-02
   3    9.996       9.582       9.093       8.462       7.650       6.658       5.402       3.854       2.037      2.0581E-02
   4    9.996       9.569       9.055       8.375       7.484       6.568       5.362       3.837       2.031      2.0523E-02
   5    9.996       9.560       9.025       8.269       7.060       6.459       5.330       3.827       2.028      2.0492E-02
   6    9.996       9.569       9.055       8.375       7.485       6.569       5.362       3.838       2.031      2.0523E-02
   7    9.996       9.582       9.093       8.463       7.651       6.659       5.403       3.854       2.037      2.0582E-02
   8    9.996       9.593       9.120       8.514       7.723       6.711       5.432       3.868       2.042      2.0635E-02
   9    9.996       9.600       9.135       8.539       7.755       6.736       5.447       3.876       2.045      2.0668E-02
  10    9.996       9.603       9.141       8.549       7.766       6.746       5.454       3.879       2.047      2.0683E-02

 HEAD WILL BE SAVED ON UNIT   51 AT END OF TIME STEP   58, STRESS PERIOD    3

 DRAWDOWN WILL BE SAVED ON UNIT   52 AT END OF TIME STEP   58, STRESS PERIOD    3
1
  VOLUMETRIC BUDGET FOR ENTIRE MODEL AT END OF TIME STEP   58, STRESS PERIOD   3
  ------------------------------------------------------------------------------

     CUMULATIVE VOLUMES      L**3       RATES FOR THIS TIME STEP      L**3/T
     ------------------                 ------------------------

           IN:                                      IN:
           ---                                      ---
             STORAGE =      372824.8438               STORAGE =         884.5105
       CONSTANT HEAD =           0.0000         CONSTANT HEAD =           0.0000
               WELLS =           0.0000                 WELLS =           0.0000
     HEAD DEP BOUNDS =       12248.5352       HEAD DEP BOUNDS =         245.3382

            TOTAL IN =      385073.3750              TOTAL IN =        1129.8486

          OUT:                                     OUT:
          ----                                     ----
             STORAGE =           0.0000               STORAGE =           0.0000
       CONSTANT HEAD =           0.0000         CONSTANT HEAD =           0.0000
               WELLS =        5800.0000                 WELLS =         100.0000
     HEAD DEP BOUNDS =      379273.3438       HEAD DEP BOUNDS =        1029.8586

           TOTAL OUT =      385073.3438             TOTAL OUT =        1129.8586

            IN - OUT =       3.1250E-02              IN - OUT =      -1.0010E-02

 PERCENT DISCREPANCY =           0.00     PERCENT DISCREPANCY =          -0.00






         TIME SUMMARY AT END OF TIME STEP   58 IN STRESS PERIOD    3
                    SECONDS     MINUTES      HOURS       DAYS        YEARS
                    -----------------------------------------------------------
   TIME STEP LENGTH  86400.      1440.0      24.000      1.0000     2.73785E-03
 STRESS PERIOD TIME 5.01120E+06  83520.      1392.0      58.000     0.15880    
         TOTAL TIME 1.37376E+07 2.28960E+05  3816.0      159.00     0.43532    
1
 
 SOLVING FOR HEAD 

 OUTPUT CONTROL FOR STRESS PERIOD    3   TIME STEP   59
    SAVE HEAD FOR ALL LAYERS
    SAVE DRAWDOWN FOR ALL LAYERS
    SAVE BUDGET
    PRINT HEAD FOR ALL LAYERS
    PRINT BUDGET
 UBDSV1 SAVING "         STORAGE" ON UNIT  53 AT TIME STEP 59, STRESS PERIOD   3
 UBDSV2 SAVING "   CONSTANT HEAD" ON UNIT  53 AT TIME STEP 59, STRESS PERIOD   3
 UBDSV1 SAVING "FLOW RIGHT FACE " ON UNIT  53 AT TIME STEP 59, STRESS PERIOD   3
 UBDSV1 SAVING "FLOW FRONT FACE " ON UNIT  53 AT TIME STEP 59, STRESS PERIOD   3
1
              HEAD IN LAYER   1 AT END OF TIME STEP  59 IN STRESS PERIOD    3
  ---------------------------------------------------------------------------

            1           2           3           4           5           6           7           8           9          10
 ........................................................................................................................
   1    9.996       9.593       9.122       8.520       7.733       6.715       5.428       3.862       2.038      2.0589E-02
   2    9.996       9.588       9.110       8.499       7.706       6.693       5.415       3.855       2.035      2.0563E-02
   3    9.996       9.578       9.084       8.450       7.635       6.642       5.387       3.842       2.030      2.0512E-02
   4    9.996       9.564       9.046       8.362       7.469       6.552       5.347       3.826       2.024      2.0453E-02
   5    9.996       9.556       9.016       8.256       7.044       6.442       5.315       3.815       2.021      2.0422E-02
   6    9.996       9.564       9.046       8.363       7.469       6.552       5.347       3.826       2.024      2.0454E-02
   7    9.996       9.578       9.085       8.451       7.636       6.643       5.388       3.843       2.030      2.0514E-02
   8    9.996       9.589       9.112       8.502       7.709       6.696       5.417       3.856       2.035      2.0568E-02
   9    9.996       9.596       9.127       8.527       7.741       6.722       5.433       3.865       2.039      2.0602E-02
  10    9.996       9.599       9.134       8.537       7.753       6.732       5.440       3.868       2.040      2.0617E-02

 HEAD WILL BE SAVED ON UNIT   51 AT END OF TIME STEP   59, STRESS PERIOD    3

 DRAWDOWN WILL BE SAVED ON UNIT   52 AT END OF TIME STEP   59, STRESS PERIOD    3
1
  VOLUMETRIC BUDGET FOR ENTIRE MODEL AT END OF TIME STEP   59, STRESS PERIOD   3
  ------------------------------------------------------------------------------

     CUMULATIVE VOLUMES      L**3       RATES FOR THIS TIME STEP      L**3/T
     ------------------                 ------------------------

           IN:                                      IN:
           ---                                      ---
             STORAGE =      373703.4062               STORAGE =         878.5479
       CONSTANT HEAD =           0.0000         CONSTANT HEAD =           0.0000
               WELLS =           0.0000                 WELLS =           0.0000
     HEAD DEP BOUNDS =       12496.4570       HEAD DEP BOUNDS =         247.9219

            TOTAL IN =      386199.8750              TOTAL IN =        1126.4697

          OUT:                                     OUT:
          ----                                     ----
             STORAGE =           0.0000               STORAGE =           0.0000
       CONSTANT HEAD =           0.0000         CONSTANT HEAD =           0.0000
               WELLS =        5900.0000                 WELLS =         100.0000
     HEAD DEP BOUNDS =      380299.8125       HEAD DEP BOUNDS =        1026.4714

           TOTAL OUT =      386199.8125             TOTAL OUT =        1126.4714

            IN - OUT =       6.2500E-02              IN - OUT =      -1.7090E-03

 PERCENT DISCREPANCY =           0.00     PERCENT DISCREPANCY =          -0.00






         TIME SUMMARY AT END OF TIME STEP   59 IN STRESS PERIOD    3
                    SECONDS     MINUTES      HOURS       DAYS        YEARS
                    -----------------------------------------------------------
   TIME STEP LENGTH  86400.      1440.0      24.000      1.0000     2.73785E-03
 STRESS PERIOD TIME 5.09760E+06  84960.      1416.0      59.000     0.16153    
         TOTAL TIME 1.38240E+07 2.30400E+05  3840.0      160.00     0.43806    
1
 
 SOLVING FOR HEAD 

 OUTPUT CONTROL FOR STRESS PERIOD    3   TIME STEP   60
    SAVE HEAD FOR ALL LAYERS
    SAVE DRAWDOWN FOR ALL LAYERS
    SAVE BUDGET
    PRINT HEAD FOR ALL LAYERS
    PRINT BUDGET
 UBDSV1 SAVING "         STORAGE" ON UNIT  53 AT TIME STEP 60, STRESS PERIOD   3
 UBDSV2 SAVING "   CONSTANT HEAD" ON UNIT  53 AT TIME STEP 60, STRESS PERIOD   3
 UBDSV1 SAVING "FLOW RIGHT FACE " ON UNIT  53 AT TIME STEP 60, STRESS PERIOD   3
 UBDSV1 SAVING "FLOW FRONT FACE " ON UNIT  53 AT TIME STEP 60, STRESS PERIOD   3
1
              HEAD IN LAYER   1 AT END OF TIME STEP  60 IN STRESS PERIOD    3
  ---------------------------------------------------------------------------

            1           2           3           4           5           6           7           8           9          10
 ........................................................................................................................
   1    9.996       9.589       9.114       8.509       7.719       6.700       5.414       3.851       2.031      2.0523E-02
   2    9.996       9.584       9.102       8.488       7.691       6.678       5.401       3.844       2.028      2.0496E-02
   3    9.996       9.573       9.075       8.438       7.620       6.627       5.373       3.831       2.023      2.0444E-02
   4    9.996       9.559       9.037       8.350       7.454       6.536       5.332       3.814       2.017      2.0384E-02
   5    9.996       9.551       9.007       8.243       7.029       6.426       5.300       3.804       2.014      2.0353E-02
   6    9.996       9.560       9.037       8.350       7.454       6.536       5.332       3.814       2.018      2.0385E-02
   7    9.996       9.574       9.076       8.439       7.621       6.628       5.374       3.831       2.024      2.0446E-02
   8    9.996       9.585       9.104       8.490       7.695       6.681       5.403       3.845       2.029      2.0502E-02
   9    9.996       9.592       9.119       8.516       7.727       6.707       5.420       3.854       2.032      2.0537E-02
  10    9.996       9.595       9.126       8.526       7.739       6.717       5.426       3.857       2.034      2.0553E-02

 HEAD WILL BE SAVED ON UNIT   51 AT END OF TIME STEP   60, STRESS PERIOD    3

 DRAWDOWN WILL BE SAVED ON UNIT   52 AT END OF TIME STEP   60, STRESS PERIOD    3
1
  VOLUMETRIC BUDGET FOR ENTIRE MODEL AT END OF TIME STEP   60, STRESS PERIOD   3
  ------------------------------------------------------------------------------

     CUMULATIVE VOLUMES      L**3       RATES FOR THIS TIME STEP      L**3/T
     ------------------                 ------------------------

           IN:                                      IN:
           ---                                      ---
             STORAGE =      374576.0312               STORAGE =         872.6300
       CONSTANT HEAD =           0.0000         CONSTANT HEAD =           0.0000
               WELLS =           0.0000                 WELLS =           0.0000
     HEAD DEP BOUNDS =       12746.9541       HEAD DEP BOUNDS =         250.4970

            TOTAL IN =      387323.0000              TOTAL IN =        1123.1271

          OUT:                                     OUT:
          ----                                     ----
             STORAGE =           0.0000               STORAGE =           0.0000
       CONSTANT HEAD =           0.0000         CONSTANT HEAD =           0.0000
               WELLS =        6000.0000                 WELLS =         100.0000
     HEAD DEP BOUNDS =      381322.9375       HEAD DEP BOUNDS =        1023.1150

           TOTAL OUT =      387322.9375             TOTAL OUT =        1123.1150

            IN - OUT =       6.2500E-02              IN - OUT =       1.2085E-02

 PERCENT DISCREPANCY =           0.00     PERCENT DISCREPANCY =           0.00






         TIME SUMMARY AT END OF TIME STEP   60 IN STRESS PERIOD    3
                    SECONDS     MINUTES      HOURS       DAYS        YEARS
                    -----------------------------------------------------------
   TIME STEP LENGTH  86400.      1440.0      24.000      1.0000     2.73785E-03
 STRESS PERIOD TIME 5.18400E+06  86400.      1440.0      60.000     0.16427    
         TOTAL TIME 1.39104E+07 2.31840E+05  3864.0      161.00     0.44079    
1
 
 SOLVING FOR HEAD 

 OUTPUT CONTROL FOR STRESS PERIOD    3   TIME STEP   61
    SAVE HEAD FOR ALL LAYERS
    SAVE DRAWDOWN FOR ALL LAYERS
    SAVE BUDGET
    PRINT HEAD FOR ALL LAYERS
    PRINT BUDGET
 UBDSV1 SAVING "         STORAGE" ON UNIT  53 AT TIME STEP 61, STRESS PERIOD   3
 UBDSV2 SAVING "   CONSTANT HEAD" ON UNIT  53 AT TIME STEP 61, STRESS PERIOD   3
 UBDSV1 SAVING "FLOW RIGHT FACE " ON UNIT  53 AT TIME STEP 61, STRESS PERIOD   3
 UBDSV1 SAVING "FLOW FRONT FACE " ON UNIT  53 AT TIME STEP 61, STRESS PERIOD   3
1
              HEAD IN LAYER   1 AT END OF TIME STEP  61 IN STRESS PERIOD    3
  ---------------------------------------------------------------------------

            1           2           3           4           5           6           7           8           9          10
 ........................................................................................................................
   1    9.996       9.585       9.106       8.497       7.705       6.685       5.400       3.839       2.025      2.0458E-02
   2    9.996       9.580       9.094       8.476       7.677       6.663       5.387       3.833       2.022      2.0430E-02
   3    9.996       9.569       9.067       8.426       7.605       6.611       5.358       3.819       2.017      2.0377E-02
   4    9.996       9.555       9.028       8.337       7.439       6.520       5.317       3.802       2.011      2.0316E-02
   5    9.996       9.546       8.998       8.231       7.013       6.410       5.285       3.792       2.008      2.0284E-02
   6    9.996       9.555       9.029       8.338       7.439       6.520       5.317       3.802       2.011      2.0317E-02
   7    9.996       9.569       9.068       8.427       7.607       6.612       5.359       3.819       2.017      2.0379E-02
   8    9.996       9.581       9.096       8.479       7.681       6.666       5.389       3.834       2.023      2.0436E-02
   9    9.996       9.588       9.111       8.505       7.714       6.692       5.406       3.843       2.026      2.0472E-02
  10    9.996       9.591       9.118       8.515       7.726       6.703       5.413       3.846       2.028      2.0489E-02

 HEAD WILL BE SAVED ON UNIT   51 AT END OF TIME STEP   61, STRESS PERIOD    3

 DRAWDOWN WILL BE SAVED ON UNIT   52 AT END OF TIME STEP   61, STRESS PERIOD    3
1
  VOLUMETRIC BUDGET FOR ENTIRE MODEL AT END OF TIME STEP   61, STRESS PERIOD   3
  ------------------------------------------------------------------------------

     CUMULATIVE VOLUMES      L**3       RATES FOR THIS TIME STEP      L**3/T
     ------------------                 ------------------------

           IN:                                      IN:
           ---                                      ---
             STORAGE =      375442.7812               STORAGE =         866.7361
       CONSTANT HEAD =           0.0000         CONSTANT HEAD =           0.0000
               WELLS =           0.0000                 WELLS =           0.0000
     HEAD DEP BOUNDS =       13000.0107       HEAD DEP BOUNDS =         253.0565

            TOTAL IN =      388442.7812              TOTAL IN =        1119.7927

          OUT:                                     OUT:
          ----                                     ----
             STORAGE =           0.0000               STORAGE =           0.0000
       CONSTANT HEAD =           0.0000         CONSTANT HEAD =           0.0000
               WELLS =        6100.0000                 WELLS =         100.0000
     HEAD DEP BOUNDS =      382342.7188       HEAD DEP BOUNDS =        1019.7862

           TOTAL OUT =      388442.7188             TOTAL OUT =        1119.7861

            IN - OUT =       6.2500E-02              IN - OUT =       6.5918E-03

 PERCENT DISCREPANCY =           0.00     PERCENT DISCREPANCY =           0.00






         TIME SUMMARY AT END OF TIME STEP   61 IN STRESS PERIOD    3
                    SECONDS     MINUTES      HOURS       DAYS        YEARS
                    -----------------------------------------------------------
   TIME STEP LENGTH  86400.      1440.0      24.000      1.0000     2.73785E-03
 STRESS PERIOD TIME 5.27040E+06  87840.      1464.0      61.000     0.16701    
         TOTAL TIME 1.39968E+07 2.33280E+05  3888.0      162.00     0.44353    
1
 
 SOLVING FOR HEAD 

 OUTPUT CONTROL FOR STRESS PERIOD    3   TIME STEP   62
    SAVE HEAD FOR ALL LAYERS
    SAVE DRAWDOWN FOR ALL LAYERS
    SAVE BUDGET
    PRINT HEAD FOR ALL LAYERS
    PRINT BUDGET
 UBDSV1 SAVING "         STORAGE" ON UNIT  53 AT TIME STEP 62, STRESS PERIOD   3
 UBDSV2 SAVING "   CONSTANT HEAD" ON UNIT  53 AT TIME STEP 62, STRESS PERIOD   3
 UBDSV1 SAVING "FLOW RIGHT FACE " ON UNIT  53 AT TIME STEP 62, STRESS PERIOD   3
 UBDSV1 SAVING "FLOW FRONT FACE " ON UNIT  53 AT TIME STEP 62, STRESS PERIOD   3
1
              HEAD IN LAYER   1 AT END OF TIME STEP  62 IN STRESS PERIOD    3
  ---------------------------------------------------------------------------

            1           2           3           4           5           6           7           8           9          10
 ........................................................................................................................
   1    9.996       9.581       9.098       8.486       7.691       6.670       5.386       3.828       2.018      2.0393E-02
   2    9.996       9.575       9.085       8.464       7.663       6.648       5.373       3.821       2.016      2.0364E-02
   3    9.996       9.564       9.058       8.414       7.591       6.596       5.344       3.808       2.010      2.0310E-02
   4    9.996       9.550       9.020       8.325       7.424       6.504       5.302       3.790       2.004      2.0248E-02
   5    9.995       9.542       8.989       8.218       6.998       6.394       5.270       3.780       2.001      2.0216E-02
   6    9.996       9.550       9.020       8.325       7.424       6.504       5.303       3.791       2.004      2.0249E-02
   7    9.996       9.565       9.059       8.415       7.592       6.597       5.345       3.808       2.011      2.0313E-02
   8    9.996       9.576       9.087       8.467       7.667       6.651       5.375       3.823       2.016      2.0370E-02
   9    9.996       9.584       9.103       8.494       7.700       6.678       5.392       3.832       2.020      2.0408E-02
  10    9.996       9.587       9.110       8.504       7.713       6.689       5.399       3.836       2.022      2.0425E-02

 HEAD WILL BE SAVED ON UNIT   51 AT END OF TIME STEP   62, STRESS PERIOD    3

 DRAWDOWN WILL BE SAVED ON UNIT   52 AT END OF TIME STEP   62, STRESS PERIOD    3
1
  VOLUMETRIC BUDGET FOR ENTIRE MODEL AT END OF TIME STEP   62, STRESS PERIOD   3
  ------------------------------------------------------------------------------

     CUMULATIVE VOLUMES      L**3       RATES FOR THIS TIME STEP      L**3/T
     ------------------                 ------------------------

           IN:                                      IN:
           ---                                      ---
             STORAGE =      376303.6562               STORAGE =         860.8849
       CONSTANT HEAD =           0.0000         CONSTANT HEAD =           0.0000
               WELLS =           0.0000                 WELLS =           0.0000
     HEAD DEP BOUNDS =       13255.6113       HEAD DEP BOUNDS =         255.6003

            TOTAL IN =      389559.2812              TOTAL IN =        1116.4851

          OUT:                                     OUT:
          ----                                     ----
             STORAGE =           0.0000               STORAGE =           0.0000
       CONSTANT HEAD =           0.0000         CONSTANT HEAD =           0.0000
               WELLS =        6200.0000                 WELLS =         100.0000
     HEAD DEP BOUNDS =      383359.2188       HEAD DEP BOUNDS =        1016.4861

           TOTAL OUT =      389559.2188             TOTAL OUT =        1116.4861

            IN - OUT =       6.2500E-02              IN - OUT =      -9.7656E-04

 PERCENT DISCREPANCY =           0.00     PERCENT DISCREPANCY =          -0.00






         TIME SUMMARY AT END OF TIME STEP   62 IN STRESS PERIOD    3
                    SECONDS     MINUTES      HOURS       DAYS        YEARS
                    -----------------------------------------------------------
   TIME STEP LENGTH  86400.      1440.0      24.000      1.0000     2.73785E-03
 STRESS PERIOD TIME 5.35680E+06  89280.      1488.0      62.000     0.16975    
         TOTAL TIME 1.40832E+07 2.34720E+05  3912.0      163.00     0.44627    
1
 
 SOLVING FOR HEAD 

 OUTPUT CONTROL FOR STRESS PERIOD    3   TIME STEP   63
    SAVE HEAD FOR ALL LAYERS
    SAVE DRAWDOWN FOR ALL LAYERS
    SAVE BUDGET
    PRINT HEAD FOR ALL LAYERS
    PRINT BUDGET
 UBDSV1 SAVING "         STORAGE" ON UNIT  53 AT TIME STEP 63, STRESS PERIOD   3
 UBDSV2 SAVING "   CONSTANT HEAD" ON UNIT  53 AT TIME STEP 63, STRESS PERIOD   3
 UBDSV1 SAVING "FLOW RIGHT FACE " ON UNIT  53 AT TIME STEP 63, STRESS PERIOD   3
 UBDSV1 SAVING "FLOW FRONT FACE " ON UNIT  53 AT TIME STEP 63, STRESS PERIOD   3
1
              HEAD IN LAYER   1 AT END OF TIME STEP  63 IN STRESS PERIOD    3
  ---------------------------------------------------------------------------

            1           2           3           4           5           6           7           8           9          10
 ........................................................................................................................
   1    9.996       9.577       9.090       8.475       7.677       6.655       5.373       3.817       2.012      2.0329E-02
   2    9.996       9.571       9.077       8.453       7.649       6.633       5.359       3.810       2.009      2.0299E-02
   3    9.996       9.560       9.050       8.402       7.576       6.580       5.329       3.796       2.004      2.0244E-02
   4    9.996       9.546       9.011       8.312       7.409       6.488       5.288       3.779       1.998      2.0181E-02
   5    9.995       9.537       8.981       8.205       6.983       6.378       5.255       3.768       1.995      2.0148E-02
   6    9.996       9.546       9.011       8.313       7.409       6.489       5.288       3.779       1.998      2.0182E-02
   7    9.996       9.560       9.051       8.403       7.578       6.581       5.330       3.797       2.004      2.0247E-02
   8    9.996       9.572       9.079       8.456       7.653       6.636       5.361       3.812       2.010      2.0306E-02
   9    9.996       9.579       9.096       8.483       7.687       6.663       5.378       3.821       2.014      2.0344E-02
  10    9.996       9.583       9.102       8.493       7.700       6.674       5.386       3.825       2.015      2.0362E-02

 HEAD WILL BE SAVED ON UNIT   51 AT END OF TIME STEP   63, STRESS PERIOD    3

 DRAWDOWN WILL BE SAVED ON UNIT   52 AT END OF TIME STEP   63, STRESS PERIOD    3
1
  VOLUMETRIC BUDGET FOR ENTIRE MODEL AT END OF TIME STEP   63, STRESS PERIOD   3
  ------------------------------------------------------------------------------

     CUMULATIVE VOLUMES      L**3       RATES FOR THIS TIME STEP      L**3/T
     ------------------                 ------------------------

           IN:                                      IN:
           ---                                      ---
             STORAGE =      377158.7500               STORAGE =         855.0801
       CONSTANT HEAD =           0.0000         CONSTANT HEAD =           0.0000
               WELLS =           0.0000                 WELLS =           0.0000
     HEAD DEP BOUNDS =       13513.7334       HEAD DEP BOUNDS =         258.1216

            TOTAL IN =      390672.4688              TOTAL IN =        1113.2017

          OUT:                                     OUT:
          ----                                     ----
             STORAGE =           0.0000               STORAGE =           0.0000
       CONSTANT HEAD =           0.0000         CONSTANT HEAD =           0.0000
               WELLS =        6300.0000                 WELLS =         100.0000
     HEAD DEP BOUNDS =      384372.4375       HEAD DEP BOUNDS =        1013.2145

           TOTAL OUT =      390672.4375             TOTAL OUT =        1113.2146

            IN - OUT =       3.1250E-02              IN - OUT =      -1.2939E-02

 PERCENT DISCREPANCY =           0.00     PERCENT DISCREPANCY =          -0.00






         TIME SUMMARY AT END OF TIME STEP   63 IN STRESS PERIOD    3
                    SECONDS     MINUTES      HOURS       DAYS        YEARS
                    -----------------------------------------------------------
   TIME STEP LENGTH  86400.      1440.0      24.000      1.0000     2.73785E-03
 STRESS PERIOD TIME 5.44320E+06  90720.      1512.0      63.000     0.17248    
         TOTAL TIME 1.41696E+07 2.36160E+05  3936.0      164.00     0.44901    
1
 
 SOLVING FOR HEAD 

 OUTPUT CONTROL FOR STRESS PERIOD    3   TIME STEP   64
    SAVE HEAD FOR ALL LAYERS
    SAVE DRAWDOWN FOR ALL LAYERS
    SAVE BUDGET
    PRINT HEAD FOR ALL LAYERS
    PRINT BUDGET
 UBDSV1 SAVING "         STORAGE" ON UNIT  53 AT TIME STEP 64, STRESS PERIOD   3
 UBDSV2 SAVING "   CONSTANT HEAD" ON UNIT  53 AT TIME STEP 64, STRESS PERIOD   3
 UBDSV1 SAVING "FLOW RIGHT FACE " ON UNIT  53 AT TIME STEP 64, STRESS PERIOD   3
 UBDSV1 SAVING "FLOW FRONT FACE " ON UNIT  53 AT TIME STEP 64, STRESS PERIOD   3
1
              HEAD IN LAYER   1 AT END OF TIME STEP  64 IN STRESS PERIOD    3
  ---------------------------------------------------------------------------

            1           2           3           4           5           6           7           8           9          10
 ........................................................................................................................
   1    9.996       9.573       9.082       8.463       7.664       6.641       5.359       3.806       2.006      2.0265E-02
   2    9.996       9.567       9.069       8.441       7.635       6.618       5.345       3.799       2.003      2.0235E-02
   3    9.996       9.556       9.041       8.390       7.562       6.565       5.315       3.785       1.998      2.0179E-02
   4    9.995       9.541       9.002       8.300       7.394       6.473       5.273       3.767       1.991      2.0115E-02
   5    9.995       9.533       8.972       8.193       6.968       6.362       5.241       3.757       1.988      2.0081E-02
   6    9.995       9.542       9.002       8.301       7.395       6.473       5.273       3.768       1.991      2.0115E-02
   7    9.996       9.556       9.042       8.391       7.563       6.566       5.316       3.786       1.998      2.0181E-02
   8    9.996       9.568       9.071       8.444       7.639       6.621       5.347       3.801       2.004      2.0242E-02
   9    9.996       9.575       9.088       8.472       7.673       6.649       5.365       3.810       2.008      2.0281E-02
  10    9.996       9.579       9.095       8.483       7.686       6.660       5.373       3.814       2.009      2.0300E-02

 HEAD WILL BE SAVED ON UNIT   51 AT END OF TIME STEP   64, STRESS PERIOD    3

 DRAWDOWN WILL BE SAVED ON UNIT   52 AT END OF TIME STEP   64, STRESS PERIOD    3
1
  VOLUMETRIC BUDGET FOR ENTIRE MODEL AT END OF TIME STEP   64, STRESS PERIOD   3
  ------------------------------------------------------------------------------

     CUMULATIVE VOLUMES      L**3       RATES FOR THIS TIME STEP      L**3/T
     ------------------                 ------------------------

           IN:                                      IN:
           ---                                      ---
             STORAGE =      378008.0625               STORAGE =         849.3125
       CONSTANT HEAD =           0.0000         CONSTANT HEAD =           0.0000
               WELLS =           0.0000                 WELLS =           0.0000
     HEAD DEP BOUNDS =       13774.3867       HEAD DEP BOUNDS =         260.6537

            TOTAL IN =      391782.4375              TOTAL IN =        1109.9662

          OUT:                                     OUT:
          ----                                     ----
             STORAGE =           0.0000               STORAGE =           0.0000
       CONSTANT HEAD =           0.0000         CONSTANT HEAD =           0.0000
               WELLS =        6400.0000                 WELLS =         100.0000
     HEAD DEP BOUNDS =      385382.4062       HEAD DEP BOUNDS =        1009.9695

           TOTAL OUT =      391782.4062             TOTAL OUT =        1109.9695

            IN - OUT =       3.1250E-02              IN - OUT =      -3.2959E-03

 PERCENT DISCREPANCY =           0.00     PERCENT DISCREPANCY =          -0.00






         TIME SUMMARY AT END OF TIME STEP   64 IN STRESS PERIOD    3
                    SECONDS     MINUTES      HOURS       DAYS        YEARS
                    -----------------------------------------------------------
   TIME STEP LENGTH  86400.      1440.0      24.000      1.0000     2.73785E-03
 STRESS PERIOD TIME 5.52960E+06  92160.      1536.0      64.000     0.17522    
         TOTAL TIME 1.42560E+07 2.37600E+05  3960.0      165.00     0.45175    
1
 
 SOLVING FOR HEAD 

 OUTPUT CONTROL FOR STRESS PERIOD    3   TIME STEP   65
    SAVE HEAD FOR ALL LAYERS
    SAVE DRAWDOWN FOR ALL LAYERS
    SAVE BUDGET
    PRINT HEAD FOR ALL LAYERS
    PRINT BUDGET
 UBDSV1 SAVING "         STORAGE" ON UNIT  53 AT TIME STEP 65, STRESS PERIOD   3
 UBDSV2 SAVING "   CONSTANT HEAD" ON UNIT  53 AT TIME STEP 65, STRESS PERIOD   3
 UBDSV1 SAVING "FLOW RIGHT FACE " ON UNIT  53 AT TIME STEP 65, STRESS PERIOD   3
 UBDSV1 SAVING "FLOW FRONT FACE " ON UNIT  53 AT TIME STEP 65, STRESS PERIOD   3
1
              HEAD IN LAYER   1 AT END OF TIME STEP  65 IN STRESS PERIOD    3
  ---------------------------------------------------------------------------

            1           2           3           4           5           6           7           8           9          10
 ........................................................................................................................
   1    9.996       9.568       9.074       8.452       7.650       6.626       5.345       3.796       2.000      2.0202E-02
   2    9.996       9.563       9.061       8.429       7.621       6.603       5.331       3.788       1.997      2.0171E-02
   3    9.996       9.551       9.033       8.378       7.548       6.550       5.301       3.774       1.991      2.0114E-02
   4    9.995       9.537       8.994       8.288       7.379       6.457       5.259       3.756       1.985      2.0049E-02
   5    9.995       9.528       8.963       8.181       6.953       6.347       5.226       3.745       1.982      2.0015E-02
   6    9.995       9.537       8.994       8.288       7.380       6.458       5.259       3.756       1.985      2.0050E-02
   7    9.996       9.552       9.034       8.379       7.549       6.551       5.302       3.774       1.992      2.0117E-02
   8    9.996       9.564       9.063       8.433       7.625       6.607       5.333       3.790       1.998      2.0178E-02
   9    9.996       9.571       9.080       8.460       7.660       6.635       5.352       3.799       2.002      2.0219E-02
  10    9.996       9.575       9.087       8.472       7.673       6.646       5.359       3.804       2.003      2.0238E-02

 HEAD WILL BE SAVED ON UNIT   51 AT END OF TIME STEP   65, STRESS PERIOD    3

 DRAWDOWN WILL BE SAVED ON UNIT   52 AT END OF TIME STEP   65, STRESS PERIOD    3
1
  VOLUMETRIC BUDGET FOR ENTIRE MODEL AT END OF TIME STEP   65, STRESS PERIOD   3
  ------------------------------------------------------------------------------

     CUMULATIVE VOLUMES      L**3       RATES FOR THIS TIME STEP      L**3/T
     ------------------                 ------------------------

           IN:                                      IN:
           ---                                      ---
             STORAGE =      378851.6562               STORAGE =         843.5822
       CONSTANT HEAD =           0.0000         CONSTANT HEAD =           0.0000
               WELLS =           0.0000                 WELLS =           0.0000
     HEAD DEP BOUNDS =       14037.5566       HEAD DEP BOUNDS =         263.1696

            TOTAL IN =      392889.2188              TOTAL IN =        1106.7517

          OUT:                                     OUT:
          ----                                     ----
             STORAGE =           0.0000               STORAGE =           0.0000
       CONSTANT HEAD =           0.0000         CONSTANT HEAD =           0.0000
               WELLS =        6500.0000                 WELLS =         100.0000
     HEAD DEP BOUNDS =      386389.1562       HEAD DEP BOUNDS =        1006.7574

           TOTAL OUT =      392889.1562             TOTAL OUT =        1106.7574

            IN - OUT =       6.2500E-02              IN - OUT =      -5.7373E-03

 PERCENT DISCREPANCY =           0.00     PERCENT DISCREPANCY =          -0.00






         TIME SUMMARY AT END OF TIME STEP   65 IN STRESS PERIOD    3
                    SECONDS     MINUTES      HOURS       DAYS        YEARS
                    -----------------------------------------------------------
   TIME STEP LENGTH  86400.      1440.0      24.000      1.0000     2.73785E-03
 STRESS PERIOD TIME 5.61600E+06  93600.      1560.0      65.000     0.17796    
         TOTAL TIME 1.43424E+07 2.39040E+05  3984.0      166.00     0.45448    
1
 
 SOLVING FOR HEAD 

 OUTPUT CONTROL FOR STRESS PERIOD    3   TIME STEP   66
    SAVE HEAD FOR ALL LAYERS
    SAVE DRAWDOWN FOR ALL LAYERS
    SAVE BUDGET
    PRINT HEAD FOR ALL LAYERS
    PRINT BUDGET
 UBDSV1 SAVING "         STORAGE" ON UNIT  53 AT TIME STEP 66, STRESS PERIOD   3
 UBDSV2 SAVING "   CONSTANT HEAD" ON UNIT  53 AT TIME STEP 66, STRESS PERIOD   3
 UBDSV1 SAVING "FLOW RIGHT FACE " ON UNIT  53 AT TIME STEP 66, STRESS PERIOD   3
 UBDSV1 SAVING "FLOW FRONT FACE " ON UNIT  53 AT TIME STEP 66, STRESS PERIOD   3
1
              HEAD IN LAYER   1 AT END OF TIME STEP  66 IN STRESS PERIOD    3
  ---------------------------------------------------------------------------

            1           2           3           4           5           6           7           8           9          10
 ........................................................................................................................
   1    9.996       9.564       9.066       8.441       7.637       6.612       5.332       3.785       1.994      2.0139E-02
   2    9.996       9.558       9.053       8.418       7.608       6.588       5.317       3.777       1.991      2.0108E-02
   3    9.996       9.547       9.025       8.366       7.534       6.535       5.287       3.763       1.985      2.0049E-02
   4    9.995       9.532       8.985       8.276       7.365       6.442       5.244       3.745       1.979      1.9983E-02
   5    9.995       9.524       8.954       8.168       6.938       6.331       5.212       3.734       1.975      1.9949E-02
   6    9.995       9.533       8.985       8.276       7.365       6.442       5.245       3.745       1.979      1.9984E-02
   7    9.996       9.547       9.026       8.367       7.535       6.536       5.288       3.763       1.985      2.0052E-02
   8    9.996       9.560       9.055       8.422       7.612       6.592       5.320       3.779       1.991      2.0115E-02
   9    9.996       9.567       9.072       8.449       7.647       6.621       5.338       3.789       1.996      2.0157E-02
  10    9.996       9.571       9.079       8.461       7.660       6.632       5.346       3.793       1.997      2.0176E-02

 HEAD WILL BE SAVED ON UNIT   51 AT END OF TIME STEP   66, STRESS PERIOD    3

 DRAWDOWN WILL BE SAVED ON UNIT   52 AT END OF TIME STEP   66, STRESS PERIOD    3
1
  VOLUMETRIC BUDGET FOR ENTIRE MODEL AT END OF TIME STEP   66, STRESS PERIOD   3
  ------------------------------------------------------------------------------

     CUMULATIVE VOLUMES      L**3       RATES FOR THIS TIME STEP      L**3/T
     ------------------                 ------------------------

           IN:                                      IN:
           ---                                      ---
             STORAGE =      379689.5312               STORAGE =         837.8890
       CONSTANT HEAD =           0.0000         CONSTANT HEAD =           0.0000
               WELLS =           0.0000                 WELLS =           0.0000
     HEAD DEP BOUNDS =       14303.2324       HEAD DEP BOUNDS =         265.6759

            TOTAL IN =      393992.7500              TOTAL IN =        1103.5649

          OUT:                                     OUT:
          ----                                     ----
             STORAGE =           0.0000               STORAGE =           0.0000
       CONSTANT HEAD =           0.0000         CONSTANT HEAD =           0.0000
               WELLS =        6600.0000                 WELLS =         100.0000
     HEAD DEP BOUNDS =      387392.7188       HEAD DEP BOUNDS =        1003.5689

           TOTAL OUT =      393992.7188             TOTAL OUT =        1103.5688

            IN - OUT =       3.1250E-02              IN - OUT =      -3.9062E-03

 PERCENT DISCREPANCY =           0.00     PERCENT DISCREPANCY =          -0.00






         TIME SUMMARY AT END OF TIME STEP   66 IN STRESS PERIOD    3
                    SECONDS     MINUTES      HOURS       DAYS        YEARS
                    -----------------------------------------------------------
   TIME STEP LENGTH  86400.      1440.0      24.000      1.0000     2.73785E-03
 STRESS PERIOD TIME 5.70240E+06  95040.      1584.0      66.000     0.18070    
         TOTAL TIME 1.44288E+07 2.40480E+05  4008.0      167.00     0.45722    
1
 
 SOLVING FOR HEAD 

 OUTPUT CONTROL FOR STRESS PERIOD    3   TIME STEP   67
    SAVE HEAD FOR ALL LAYERS
    SAVE DRAWDOWN FOR ALL LAYERS
    SAVE BUDGET
    PRINT HEAD FOR ALL LAYERS
    PRINT BUDGET
 UBDSV1 SAVING "         STORAGE" ON UNIT  53 AT TIME STEP 67, STRESS PERIOD   3
 UBDSV2 SAVING "   CONSTANT HEAD" ON UNIT  53 AT TIME STEP 67, STRESS PERIOD   3
 UBDSV1 SAVING "FLOW RIGHT FACE " ON UNIT  53 AT TIME STEP 67, STRESS PERIOD   3
 UBDSV1 SAVING "FLOW FRONT FACE " ON UNIT  53 AT TIME STEP 67, STRESS PERIOD   3
1
              HEAD IN LAYER   1 AT END OF TIME STEP  67 IN STRESS PERIOD    3
  ---------------------------------------------------------------------------

            1           2           3           4           5           6           7           8           9          10
 ........................................................................................................................
   1    9.996       9.560       9.058       8.429       7.623       6.597       5.318       3.774       1.988      2.0077E-02
   2    9.996       9.554       9.044       8.407       7.594       6.574       5.304       3.767       1.985      2.0045E-02
   3    9.995       9.543       9.016       8.354       7.520       6.520       5.273       3.752       1.979      1.9985E-02
   4    9.995       9.528       8.976       8.264       7.350       6.427       5.230       3.734       1.972      1.9919E-02
   5    9.995       9.519       8.946       8.156       6.924       6.316       5.197       3.723       1.969      1.9884E-02
   6    9.995       9.528       8.977       8.264       7.351       6.427       5.231       3.734       1.972      1.9920E-02
   7    9.996       9.543       9.017       8.356       7.521       6.521       5.274       3.752       1.979      1.9989E-02
   8    9.996       9.556       9.047       8.410       7.598       6.578       5.306       3.768       1.985      2.0053E-02
   9    9.996       9.563       9.064       8.439       7.633       6.607       5.325       3.778       1.990      2.0095E-02
  10    9.996       9.567       9.072       8.450       7.647       6.619       5.333       3.783       1.992      2.0115E-02

 HEAD WILL BE SAVED ON UNIT   51 AT END OF TIME STEP   67, STRESS PERIOD    3

 DRAWDOWN WILL BE SAVED ON UNIT   52 AT END OF TIME STEP   67, STRESS PERIOD    3
1
  VOLUMETRIC BUDGET FOR ENTIRE MODEL AT END OF TIME STEP   67, STRESS PERIOD   3
  ------------------------------------------------------------------------------

     CUMULATIVE VOLUMES      L**3       RATES FOR THIS TIME STEP      L**3/T
     ------------------                 ------------------------

           IN:                                      IN:
           ---                                      ---
             STORAGE =      380521.7500               STORAGE =         832.2328
       CONSTANT HEAD =           0.0000         CONSTANT HEAD =           0.0000
               WELLS =           0.0000                 WELLS =           0.0000
     HEAD DEP BOUNDS =       14571.3916       HEAD DEP BOUNDS =         268.1592

            TOTAL IN =      395093.1562              TOTAL IN =        1100.3921

          OUT:                                     OUT:
          ----                                     ----
             STORAGE =           0.0000               STORAGE =           0.0000
       CONSTANT HEAD =           0.0000         CONSTANT HEAD =           0.0000
               WELLS =        6700.0000                 WELLS =         100.0000
     HEAD DEP BOUNDS =      388393.1250       HEAD DEP BOUNDS =        1000.4062

           TOTAL OUT =      395093.1250             TOTAL OUT =        1100.4062

            IN - OUT =       3.1250E-02              IN - OUT =      -1.4160E-02

 PERCENT DISCREPANCY =           0.00     PERCENT DISCREPANCY =          -0.00






         TIME SUMMARY AT END OF TIME STEP   67 IN STRESS PERIOD    3
                    SECONDS     MINUTES      HOURS       DAYS        YEARS
                    -----------------------------------------------------------
   TIME STEP LENGTH  86400.      1440.0      24.000      1.0000     2.73785E-03
 STRESS PERIOD TIME 5.78880E+06  96480.      1608.0      67.000     0.18344    
         TOTAL TIME 1.45152E+07 2.41920E+05  4032.0      168.00     0.45996    
1
 
 SOLVING FOR HEAD 

 OUTPUT CONTROL FOR STRESS PERIOD    3   TIME STEP   68
    SAVE HEAD FOR ALL LAYERS
    SAVE DRAWDOWN FOR ALL LAYERS
    SAVE BUDGET
    PRINT HEAD FOR ALL LAYERS
    PRINT BUDGET
 UBDSV1 SAVING "         STORAGE" ON UNIT  53 AT TIME STEP 68, STRESS PERIOD   3
 UBDSV2 SAVING "   CONSTANT HEAD" ON UNIT  53 AT TIME STEP 68, STRESS PERIOD   3
 UBDSV1 SAVING "FLOW RIGHT FACE " ON UNIT  53 AT TIME STEP 68, STRESS PERIOD   3
 UBDSV1 SAVING "FLOW FRONT FACE " ON UNIT  53 AT TIME STEP 68, STRESS PERIOD   3
1
              HEAD IN LAYER   1 AT END OF TIME STEP  68 IN STRESS PERIOD    3
  ---------------------------------------------------------------------------

            1           2           3           4           5           6           7           8           9          10
 ........................................................................................................................
   1    9.996       9.556       9.050       8.418       7.610       6.583       5.305       3.764       1.982      2.0015E-02
   2    9.996       9.550       9.036       8.395       7.580       6.559       5.290       3.756       1.979      1.9982E-02
   3    9.995       9.538       9.008       8.343       7.506       6.505       5.259       3.741       1.973      1.9922E-02
   4    9.995       9.524       8.968       8.252       7.336       6.412       5.216       3.723       1.966      1.9854E-02
   5    9.995       9.515       8.937       8.144       6.909       6.300       5.183       3.712       1.963      1.9820E-02
   6    9.995       9.524       8.968       8.252       7.337       6.412       5.217       3.723       1.966      1.9855E-02
   7    9.995       9.539       9.009       8.344       7.507       6.507       5.260       3.742       1.973      1.9926E-02
   8    9.996       9.551       9.039       8.399       7.585       6.563       5.293       3.758       1.979      1.9991E-02
   9    9.996       9.559       9.057       8.428       7.620       6.593       5.312       3.768       1.984      2.0034E-02
  10    9.996       9.563       9.064       8.439       7.634       6.605       5.320       3.773       1.986      2.0055E-02

 HEAD WILL BE SAVED ON UNIT   51 AT END OF TIME STEP   68, STRESS PERIOD    3

 DRAWDOWN WILL BE SAVED ON UNIT   52 AT END OF TIME STEP   68, STRESS PERIOD    3
1
  VOLUMETRIC BUDGET FOR ENTIRE MODEL AT END OF TIME STEP   68, STRESS PERIOD   3
  ------------------------------------------------------------------------------

     CUMULATIVE VOLUMES      L**3       RATES FOR THIS TIME STEP      L**3/T
     ------------------                 ------------------------

           IN:                                      IN:
           ---                                      ---
             STORAGE =      381348.3750               STORAGE =         826.6216
       CONSTANT HEAD =           0.0000         CONSTANT HEAD =           0.0000
               WELLS =           0.0000                 WELLS =           0.0000
     HEAD DEP BOUNDS =       14842.0381       HEAD DEP BOUNDS =         270.6462

            TOTAL IN =      396190.4062              TOTAL IN =        1097.2678

          OUT:                                     OUT:
          ----                                     ----
             STORAGE =           0.0000               STORAGE =           0.0000
       CONSTANT HEAD =           0.0000         CONSTANT HEAD =           0.0000
               WELLS =        6800.0000                 WELLS =         100.0000
     HEAD DEP BOUNDS =      389390.4062       HEAD DEP BOUNDS =         997.2714

           TOTAL OUT =      396190.4062             TOTAL OUT =        1097.2715

            IN - OUT =           0.0000              IN - OUT =      -3.6621E-03

 PERCENT DISCREPANCY =           0.00     PERCENT DISCREPANCY =          -0.00






         TIME SUMMARY AT END OF TIME STEP   68 IN STRESS PERIOD    3
                    SECONDS     MINUTES      HOURS       DAYS        YEARS
                    -----------------------------------------------------------
   TIME STEP LENGTH  86400.      1440.0      24.000      1.0000     2.73785E-03
 STRESS PERIOD TIME 5.87520E+06  97920.      1632.0      68.000     0.18617    
         TOTAL TIME 1.46016E+07 2.43360E+05  4056.0      169.00     0.46270    
1
 
 SOLVING FOR HEAD 

 OUTPUT CONTROL FOR STRESS PERIOD    3   TIME STEP   69
    SAVE HEAD FOR ALL LAYERS
    SAVE DRAWDOWN FOR ALL LAYERS
    SAVE BUDGET
    PRINT HEAD FOR ALL LAYERS
    PRINT BUDGET
 UBDSV1 SAVING "         STORAGE" ON UNIT  53 AT TIME STEP 69, STRESS PERIOD   3
 UBDSV2 SAVING "   CONSTANT HEAD" ON UNIT  53 AT TIME STEP 69, STRESS PERIOD   3
 UBDSV1 SAVING "FLOW RIGHT FACE " ON UNIT  53 AT TIME STEP 69, STRESS PERIOD   3
 UBDSV1 SAVING "FLOW FRONT FACE " ON UNIT  53 AT TIME STEP 69, STRESS PERIOD   3
1
              HEAD IN LAYER   1 AT END OF TIME STEP  69 IN STRESS PERIOD    3
  ---------------------------------------------------------------------------

            1           2           3           4           5           6           7           8           9          10
 ........................................................................................................................
   1    9.996       9.552       9.042       8.407       7.596       6.569       5.292       3.753       1.976      1.9954E-02
   2    9.996       9.546       9.028       8.384       7.567       6.545       5.277       3.745       1.973      1.9920E-02
   3    9.995       9.534       9.000       8.331       7.492       6.490       5.246       3.730       1.967      1.9859E-02
   4    9.995       9.519       8.959       8.240       7.322       6.397       5.202       3.712       1.960      1.9791E-02
   5    9.995       9.510       8.929       8.132       6.894       6.285       5.169       3.701       1.956      1.9756E-02
   6    9.995       9.519       8.960       8.241       7.322       6.397       5.203       3.712       1.960      1.9792E-02
   7    9.995       9.535       9.001       8.333       7.493       6.492       5.247       3.731       1.967      1.9863E-02
   8    9.996       9.547       9.031       8.388       7.571       6.549       5.280       3.747       1.973      1.9929E-02
   9    9.996       9.555       9.049       8.417       7.607       6.579       5.299       3.758       1.978      1.9974E-02
  10    9.996       9.559       9.057       8.429       7.622       6.591       5.307       3.762       1.980      1.9995E-02

 HEAD WILL BE SAVED ON UNIT   51 AT END OF TIME STEP   69, STRESS PERIOD    3

 DRAWDOWN WILL BE SAVED ON UNIT   52 AT END OF TIME STEP   69, STRESS PERIOD    3
1
  VOLUMETRIC BUDGET FOR ENTIRE MODEL AT END OF TIME STEP   69, STRESS PERIOD   3
  ------------------------------------------------------------------------------

     CUMULATIVE VOLUMES      L**3       RATES FOR THIS TIME STEP      L**3/T
     ------------------                 ------------------------

           IN:                                      IN:
           ---                                      ---
             STORAGE =      382169.4062               STORAGE =         821.0415
       CONSTANT HEAD =           0.0000         CONSTANT HEAD =           0.0000
               WELLS =           0.0000                 WELLS =           0.0000
     HEAD DEP BOUNDS =       15115.1553       HEAD DEP BOUNDS =         273.1168

            TOTAL IN =      397284.5625              TOTAL IN =        1094.1583

          OUT:                                     OUT:
          ----                                     ----
             STORAGE =           0.0000               STORAGE =           0.0000
       CONSTANT HEAD =           0.0000         CONSTANT HEAD =           0.0000
               WELLS =        6900.0000                 WELLS =         100.0000
     HEAD DEP BOUNDS =      390384.5625       HEAD DEP BOUNDS =         994.1652

           TOTAL OUT =      397284.5625             TOTAL OUT =        1094.1653

            IN - OUT =           0.0000              IN - OUT =      -6.9580E-03

 PERCENT DISCREPANCY =           0.00     PERCENT DISCREPANCY =          -0.00






         TIME SUMMARY AT END OF TIME STEP   69 IN STRESS PERIOD    3
                    SECONDS     MINUTES      HOURS       DAYS        YEARS
                    -----------------------------------------------------------
   TIME STEP LENGTH  86400.      1440.0      24.000      1.0000     2.73785E-03
 STRESS PERIOD TIME 5.96160E+06  99360.      1656.0      69.000     0.18891    
         TOTAL TIME 1.46880E+07 2.44800E+05  4080.0      170.00     0.46543    
1
 
 SOLVING FOR HEAD 

 OUTPUT CONTROL FOR STRESS PERIOD    3   TIME STEP   70
    SAVE HEAD FOR ALL LAYERS
    SAVE DRAWDOWN FOR ALL LAYERS
    SAVE BUDGET
    PRINT HEAD FOR ALL LAYERS
    PRINT BUDGET
 UBDSV1 SAVING "         STORAGE" ON UNIT  53 AT TIME STEP 70, STRESS PERIOD   3
 UBDSV2 SAVING "   CONSTANT HEAD" ON UNIT  53 AT TIME STEP 70, STRESS PERIOD   3
 UBDSV1 SAVING "FLOW RIGHT FACE " ON UNIT  53 AT TIME STEP 70, STRESS PERIOD   3
 UBDSV1 SAVING "FLOW FRONT FACE " ON UNIT  53 AT TIME STEP 70, STRESS PERIOD   3
1
              HEAD IN LAYER   1 AT END OF TIME STEP  70 IN STRESS PERIOD    3
  ---------------------------------------------------------------------------

            1           2           3           4           5           6           7           8           9          10
 ........................................................................................................................
   1    9.996       9.548       9.034       8.396       7.583       6.555       5.278       3.743       1.970      1.9893E-02
   2    9.995       9.542       9.020       8.373       7.553       6.531       5.263       3.735       1.967      1.9859E-02
   3    9.995       9.530       8.991       8.319       7.478       6.476       5.232       3.719       1.961      1.9797E-02
   4    9.995       9.515       8.951       8.228       7.308       6.382       5.188       3.701       1.954      1.9728E-02
   5    9.995       9.506       8.920       8.120       6.880       6.270       5.155       3.690       1.950      1.9692E-02
   6    9.995       9.515       8.951       8.229       7.308       6.382       5.189       3.701       1.954      1.9729E-02
   7    9.995       9.530       8.993       8.321       7.480       6.477       5.233       3.720       1.961      1.9801E-02
   8    9.996       9.543       9.023       8.377       7.558       6.535       5.266       3.737       1.968      1.9868E-02
   9    9.996       9.551       9.041       8.406       7.594       6.565       5.286       3.747       1.972      1.9914E-02
  10    9.996       9.555       9.049       8.418       7.609       6.578       5.294       3.752       1.974      1.9936E-02

 HEAD WILL BE SAVED ON UNIT   51 AT END OF TIME STEP   70, STRESS PERIOD    3

 DRAWDOWN WILL BE SAVED ON UNIT   52 AT END OF TIME STEP   70, STRESS PERIOD    3
1
  VOLUMETRIC BUDGET FOR ENTIRE MODEL AT END OF TIME STEP   70, STRESS PERIOD   3
  ------------------------------------------------------------------------------

     CUMULATIVE VOLUMES      L**3       RATES FOR THIS TIME STEP      L**3/T
     ------------------                 ------------------------

           IN:                                      IN:
           ---                                      ---
             STORAGE =      382984.9062               STORAGE =         815.5042
       CONSTANT HEAD =           0.0000         CONSTANT HEAD =           0.0000
               WELLS =           0.0000                 WELLS =           0.0000
     HEAD DEP BOUNDS =       15390.7324       HEAD DEP BOUNDS =         275.5774

            TOTAL IN =      398375.6250              TOTAL IN =        1091.0815

          OUT:                                     OUT:
          ----                                     ----
             STORAGE =           0.0000               STORAGE =           0.0000
       CONSTANT HEAD =           0.0000         CONSTANT HEAD =           0.0000
               WELLS =        7000.0000                 WELLS =         100.0000
     HEAD DEP BOUNDS =      391375.6562       HEAD DEP BOUNDS =         991.0832

           TOTAL OUT =      398375.6562             TOTAL OUT =        1091.0833

            IN - OUT =      -3.1250E-02              IN - OUT =      -1.7090E-03

 PERCENT DISCREPANCY =          -0.00     PERCENT DISCREPANCY =          -0.00






         TIME SUMMARY AT END OF TIME STEP   70 IN STRESS PERIOD    3
                    SECONDS     MINUTES      HOURS       DAYS        YEARS
                    -----------------------------------------------------------
   TIME STEP LENGTH  86400.      1440.0      24.000      1.0000     2.73785E-03
 STRESS PERIOD TIME 6.04800E+06 1.00800E+05  1680.0      70.000     0.19165    
         TOTAL TIME 1.47744E+07 2.46240E+05  4104.0      171.00     0.46817    
1
 
 SOLVING FOR HEAD 

 OUTPUT CONTROL FOR STRESS PERIOD    3   TIME STEP   71
    SAVE HEAD FOR ALL LAYERS
    SAVE DRAWDOWN FOR ALL LAYERS
    SAVE BUDGET
    PRINT HEAD FOR ALL LAYERS
    PRINT BUDGET
 UBDSV1 SAVING "         STORAGE" ON UNIT  53 AT TIME STEP 71, STRESS PERIOD   3
 UBDSV2 SAVING "   CONSTANT HEAD" ON UNIT  53 AT TIME STEP 71, STRESS PERIOD   3
 UBDSV1 SAVING "FLOW RIGHT FACE " ON UNIT  53 AT TIME STEP 71, STRESS PERIOD   3
 UBDSV1 SAVING "FLOW FRONT FACE " ON UNIT  53 AT TIME STEP 71, STRESS PERIOD   3
1
              HEAD IN LAYER   1 AT END OF TIME STEP  71 IN STRESS PERIOD    3
  ---------------------------------------------------------------------------

            1           2           3           4           5           6           7           8           9          10
 ........................................................................................................................
   1    9.996       9.544       9.027       8.385       7.570       6.541       5.265       3.732       1.964      1.9833E-02
   2    9.995       9.538       9.012       8.362       7.540       6.517       5.250       3.724       1.961      1.9798E-02
   3    9.995       9.526       8.983       8.308       7.464       6.461       5.219       3.709       1.955      1.9735E-02
   4    9.995       9.511       8.943       8.217       7.294       6.367       5.175       3.690       1.948      1.9665E-02
   5    9.995       9.502       8.912       8.109       6.866       6.255       5.141       3.679       1.944      1.9629E-02
   6    9.995       9.511       8.943       8.217       7.294       6.367       5.175       3.690       1.948      1.9666E-02
   7    9.995       9.526       8.985       8.310       7.466       6.463       5.220       3.710       1.955      1.9739E-02
   8    9.995       9.539       9.016       8.366       7.545       6.521       5.253       3.726       1.962      1.9808E-02
   9    9.996       9.547       9.034       8.395       7.582       6.551       5.273       3.737       1.966      1.9855E-02
  10    9.996       9.551       9.042       8.408       7.596       6.564       5.282       3.742       1.968      1.9877E-02

 HEAD WILL BE SAVED ON UNIT   51 AT END OF TIME STEP   71, STRESS PERIOD    3

 DRAWDOWN WILL BE SAVED ON UNIT   52 AT END OF TIME STEP   71, STRESS PERIOD    3
1
  VOLUMETRIC BUDGET FOR ENTIRE MODEL AT END OF TIME STEP   71, STRESS PERIOD   3
  ------------------------------------------------------------------------------

     CUMULATIVE VOLUMES      L**3       RATES FOR THIS TIME STEP      L**3/T
     ------------------                 ------------------------

           IN:                                      IN:
           ---                                      ---
             STORAGE =      383794.9062               STORAGE =         809.9993
       CONSTANT HEAD =           0.0000         CONSTANT HEAD =           0.0000
               WELLS =           0.0000                 WELLS =           0.0000
     HEAD DEP BOUNDS =       15668.7666       HEAD DEP BOUNDS =         278.0346

            TOTAL IN =      399463.6875              TOTAL IN =        1088.0339

          OUT:                                     OUT:
          ----                                     ----
             STORAGE =           0.0000               STORAGE =           0.0000
       CONSTANT HEAD =           0.0000         CONSTANT HEAD =           0.0000
               WELLS =        7100.0000                 WELLS =         100.0000
     HEAD DEP BOUNDS =      392363.6875       HEAD DEP BOUNDS =         988.0276

           TOTAL OUT =      399463.6875             TOTAL OUT =        1088.0276

            IN - OUT =           0.0000              IN - OUT =       6.3477E-03

 PERCENT DISCREPANCY =           0.00     PERCENT DISCREPANCY =           0.00






         TIME SUMMARY AT END OF TIME STEP   71 IN STRESS PERIOD    3
                    SECONDS     MINUTES      HOURS       DAYS        YEARS
                    -----------------------------------------------------------
   TIME STEP LENGTH  86400.      1440.0      24.000      1.0000     2.73785E-03
 STRESS PERIOD TIME 6.13440E+06 1.02240E+05  1704.0      71.000     0.19439    
         TOTAL TIME 1.48608E+07 2.47680E+05  4128.0      172.00     0.47091    
1
 
 SOLVING FOR HEAD 

 OUTPUT CONTROL FOR STRESS PERIOD    3   TIME STEP   72
    SAVE HEAD FOR ALL LAYERS
    SAVE DRAWDOWN FOR ALL LAYERS
    SAVE BUDGET
    PRINT HEAD FOR ALL LAYERS
    PRINT BUDGET
 UBDSV1 SAVING "         STORAGE" ON UNIT  53 AT TIME STEP 72, STRESS PERIOD   3
 UBDSV2 SAVING "   CONSTANT HEAD" ON UNIT  53 AT TIME STEP 72, STRESS PERIOD   3
 UBDSV1 SAVING "FLOW RIGHT FACE " ON UNIT  53 AT TIME STEP 72, STRESS PERIOD   3
 UBDSV1 SAVING "FLOW FRONT FACE " ON UNIT  53 AT TIME STEP 72, STRESS PERIOD   3
1
              HEAD IN LAYER   1 AT END OF TIME STEP  72 IN STRESS PERIOD    3
  ---------------------------------------------------------------------------

            1           2           3           4           5           6           7           8           9          10
 ........................................................................................................................
   1    9.995       9.540       9.019       8.374       7.557       6.527       5.252       3.722       1.958      1.9773E-02
   2    9.995       9.534       9.005       8.350       7.527       6.503       5.237       3.714       1.955      1.9738E-02
   3    9.995       9.521       8.975       8.297       7.451       6.447       5.205       3.698       1.949      1.9674E-02
   4    9.995       9.506       8.934       8.205       7.280       6.352       5.161       3.679       1.942      1.9603E-02
   5    9.995       9.497       8.903       8.097       6.852       6.241       5.128       3.668       1.938      1.9567E-02
   6    9.995       9.507       8.935       8.206       7.281       6.353       5.161       3.680       1.942      1.9604E-02
   7    9.995       9.522       8.977       8.298       7.453       6.449       5.206       3.699       1.949      1.9678E-02
   8    9.995       9.535       9.008       8.355       7.532       6.507       5.240       3.716       1.956      1.9748E-02
   9    9.996       9.544       9.026       8.385       7.569       6.538       5.260       3.727       1.960      1.9796E-02
  10    9.996       9.547       9.034       8.397       7.584       6.551       5.269       3.732       1.963      1.9818E-02

 HEAD WILL BE SAVED ON UNIT   51 AT END OF TIME STEP   72, STRESS PERIOD    3

 DRAWDOWN WILL BE SAVED ON UNIT   52 AT END OF TIME STEP   72, STRESS PERIOD    3
1
  VOLUMETRIC BUDGET FOR ENTIRE MODEL AT END OF TIME STEP   72, STRESS PERIOD   3
  ------------------------------------------------------------------------------

     CUMULATIVE VOLUMES      L**3       RATES FOR THIS TIME STEP      L**3/T
     ------------------                 ------------------------

           IN:                                      IN:
           ---                                      ---
             STORAGE =      384599.4375               STORAGE =         804.5370
       CONSTANT HEAD =           0.0000         CONSTANT HEAD =           0.0000
               WELLS =           0.0000                 WELLS =           0.0000
     HEAD DEP BOUNDS =       15949.2285       HEAD DEP BOUNDS =         280.4618

            TOTAL IN =      400548.6562              TOTAL IN =        1084.9988

          OUT:                                     OUT:
          ----                                     ----
             STORAGE =           0.0000               STORAGE =           0.0000
       CONSTANT HEAD =           0.0000         CONSTANT HEAD =           0.0000
               WELLS =        7200.0000                 WELLS =         100.0000
     HEAD DEP BOUNDS =      393348.6875       HEAD DEP BOUNDS =         984.9982

           TOTAL OUT =      400548.6875             TOTAL OUT =        1084.9982

            IN - OUT =      -3.1250E-02              IN - OUT =       6.1035E-04

 PERCENT DISCREPANCY =          -0.00     PERCENT DISCREPANCY =           0.00






         TIME SUMMARY AT END OF TIME STEP   72 IN STRESS PERIOD    3
                    SECONDS     MINUTES      HOURS       DAYS        YEARS
                    -----------------------------------------------------------
   TIME STEP LENGTH  86400.      1440.0      24.000      1.0000     2.73785E-03
 STRESS PERIOD TIME 6.22080E+06 1.03680E+05  1728.0      72.000     0.19713    
         TOTAL TIME 1.49472E+07 2.49120E+05  4152.0      173.00     0.47365    
1
 
 SOLVING FOR HEAD 

 OUTPUT CONTROL FOR STRESS PERIOD    3   TIME STEP   73
    SAVE HEAD FOR ALL LAYERS
    SAVE DRAWDOWN FOR ALL LAYERS
    SAVE BUDGET
    PRINT HEAD FOR ALL LAYERS
    PRINT BUDGET
 UBDSV1 SAVING "         STORAGE" ON UNIT  53 AT TIME STEP 73, STRESS PERIOD   3
 UBDSV2 SAVING "   CONSTANT HEAD" ON UNIT  53 AT TIME STEP 73, STRESS PERIOD   3
 UBDSV1 SAVING "FLOW RIGHT FACE " ON UNIT  53 AT TIME STEP 73, STRESS PERIOD   3
 UBDSV1 SAVING "FLOW FRONT FACE " ON UNIT  53 AT TIME STEP 73, STRESS PERIOD   3
1
              HEAD IN LAYER   1 AT END OF TIME STEP  73 IN STRESS PERIOD    3
  ---------------------------------------------------------------------------

            1           2           3           4           5           6           7           8           9          10
 ........................................................................................................................
   1    9.995       9.536       9.011       8.363       7.544       6.513       5.240       3.712       1.953      1.9714E-02
   2    9.995       9.529       8.997       8.339       7.513       6.489       5.224       3.704       1.949      1.9678E-02
   3    9.995       9.517       8.967       8.285       7.437       6.433       5.192       3.688       1.943      1.9613E-02
   4    9.995       9.502       8.926       8.193       7.266       6.338       5.148       3.669       1.936      1.9541E-02
   5    9.995       9.493       8.895       8.085       6.838       6.226       5.114       3.658       1.932      1.9505E-02
   6    9.995       9.502       8.927       8.194       7.267       6.338       5.148       3.669       1.936      1.9543E-02
   7    9.995       9.518       8.969       8.287       7.439       6.435       5.193       3.689       1.943      1.9618E-02
   8    9.995       9.531       9.000       8.344       7.519       6.493       5.227       3.706       1.950      1.9689E-02
   9    9.995       9.540       9.019       8.374       7.556       6.524       5.248       3.717       1.955      1.9737E-02
  10    9.996       9.544       9.027       8.387       7.571       6.537       5.257       3.722       1.957      1.9760E-02

 HEAD WILL BE SAVED ON UNIT   51 AT END OF TIME STEP   73, STRESS PERIOD    3

 DRAWDOWN WILL BE SAVED ON UNIT   52 AT END OF TIME STEP   73, STRESS PERIOD    3
1
  VOLUMETRIC BUDGET FOR ENTIRE MODEL AT END OF TIME STEP   73, STRESS PERIOD   3
  ------------------------------------------------------------------------------

     CUMULATIVE VOLUMES      L**3       RATES FOR THIS TIME STEP      L**3/T
     ------------------                 ------------------------

           IN:                                      IN:
           ---                                      ---
             STORAGE =      385398.5312               STORAGE =         799.1015
       CONSTANT HEAD =           0.0000         CONSTANT HEAD =           0.0000
               WELLS =           0.0000                 WELLS =           0.0000
     HEAD DEP BOUNDS =       16232.1143       HEAD DEP BOUNDS =         282.8856

            TOTAL IN =      401630.6562              TOTAL IN =        1081.9871

          OUT:                                     OUT:
          ----                                     ----
             STORAGE =           0.0000               STORAGE =           0.0000
       CONSTANT HEAD =           0.0000         CONSTANT HEAD =           0.0000
               WELLS =        7300.0000                 WELLS =         100.0000
     HEAD DEP BOUNDS =      394330.6875       HEAD DEP BOUNDS =         981.9913

           TOTAL OUT =      401630.6875             TOTAL OUT =        1081.9913

            IN - OUT =      -3.1250E-02              IN - OUT =      -4.2725E-03

 PERCENT DISCREPANCY =          -0.00     PERCENT DISCREPANCY =          -0.00






         TIME SUMMARY AT END OF TIME STEP   73 IN STRESS PERIOD    3
                    SECONDS     MINUTES      HOURS       DAYS        YEARS
                    -----------------------------------------------------------
   TIME STEP LENGTH  86400.      1440.0      24.000      1.0000     2.73785E-03
 STRESS PERIOD TIME 6.30720E+06 1.05120E+05  1752.0      73.000     0.19986    
         TOTAL TIME 1.50336E+07 2.50560E+05  4176.0      174.00     0.47639    
1
 
 SOLVING FOR HEAD 

 OUTPUT CONTROL FOR STRESS PERIOD    3   TIME STEP   74
    SAVE HEAD FOR ALL LAYERS
    SAVE DRAWDOWN FOR ALL LAYERS
    SAVE BUDGET
    PRINT HEAD FOR ALL LAYERS
    PRINT BUDGET
 UBDSV1 SAVING "         STORAGE" ON UNIT  53 AT TIME STEP 74, STRESS PERIOD   3
 UBDSV2 SAVING "   CONSTANT HEAD" ON UNIT  53 AT TIME STEP 74, STRESS PERIOD   3
 UBDSV1 SAVING "FLOW RIGHT FACE " ON UNIT  53 AT TIME STEP 74, STRESS PERIOD   3
 UBDSV1 SAVING "FLOW FRONT FACE " ON UNIT  53 AT TIME STEP 74, STRESS PERIOD   3
1
              HEAD IN LAYER   1 AT END OF TIME STEP  74 IN STRESS PERIOD    3
  ---------------------------------------------------------------------------

            1           2           3           4           5           6           7           8           9          10
 ........................................................................................................................
   1    9.995       9.532       9.003       8.353       7.531       6.500       5.227       3.702       1.947      1.9655E-02
   2    9.995       9.525       8.989       8.328       7.500       6.475       5.211       3.693       1.943      1.9619E-02
   3    9.995       9.513       8.959       8.274       7.424       6.419       5.179       3.677       1.937      1.9553E-02
   4    9.995       9.498       8.918       8.182       7.252       6.323       5.134       3.658       1.930      1.9480E-02
   5    9.995       9.489       8.887       8.074       6.824       6.211       5.101       3.647       1.926      1.9444E-02
   6    9.995       9.498       8.919       8.183       7.253       6.324       5.135       3.658       1.930      1.9482E-02
   7    9.995       9.514       8.961       8.276       7.426       6.420       5.180       3.678       1.937      1.9558E-02
   8    9.995       9.527       8.992       8.333       7.506       6.480       5.215       3.696       1.944      1.9630E-02
   9    9.995       9.536       9.011       8.364       7.543       6.511       5.235       3.707       1.949      1.9679E-02
  10    9.995       9.540       9.019       8.376       7.559       6.524       5.244       3.712       1.952      1.9703E-02

 HEAD WILL BE SAVED ON UNIT   51 AT END OF TIME STEP   74, STRESS PERIOD    3

 DRAWDOWN WILL BE SAVED ON UNIT   52 AT END OF TIME STEP   74, STRESS PERIOD    3
1
  VOLUMETRIC BUDGET FOR ENTIRE MODEL AT END OF TIME STEP   74, STRESS PERIOD   3
  ------------------------------------------------------------------------------

     CUMULATIVE VOLUMES      L**3       RATES FOR THIS TIME STEP      L**3/T
     ------------------                 ------------------------

           IN:                                      IN:
           ---                                      ---
             STORAGE =      386192.2500               STORAGE =         793.7150
       CONSTANT HEAD =           0.0000         CONSTANT HEAD =           0.0000
               WELLS =           0.0000                 WELLS =           0.0000
     HEAD DEP BOUNDS =       16517.4141       HEAD DEP BOUNDS =         285.2992

            TOTAL IN =      402709.6562              TOTAL IN =        1079.0142

          OUT:                                     OUT:
          ----                                     ----
             STORAGE =           0.0000               STORAGE =           0.0000
       CONSTANT HEAD =           0.0000         CONSTANT HEAD =           0.0000
               WELLS =        7400.0000                 WELLS =         100.0000
     HEAD DEP BOUNDS =      395309.6875       HEAD DEP BOUNDS =         979.0128

           TOTAL OUT =      402709.6875             TOTAL OUT =        1079.0127

            IN - OUT =      -3.1250E-02              IN - OUT =       1.4648E-03

 PERCENT DISCREPANCY =          -0.00     PERCENT DISCREPANCY =           0.00






         TIME SUMMARY AT END OF TIME STEP   74 IN STRESS PERIOD    3
                    SECONDS     MINUTES      HOURS       DAYS        YEARS
                    -----------------------------------------------------------
   TIME STEP LENGTH  86400.      1440.0      24.000      1.0000     2.73785E-03
 STRESS PERIOD TIME 6.39360E+06 1.06560E+05  1776.0      74.000     0.20260    
         TOTAL TIME 1.51200E+07 2.52000E+05  4200.0      175.00     0.47912    
1
 
 SOLVING FOR HEAD 

 OUTPUT CONTROL FOR STRESS PERIOD    3   TIME STEP   75
    SAVE HEAD FOR ALL LAYERS
    SAVE DRAWDOWN FOR ALL LAYERS
    SAVE BUDGET
    PRINT HEAD FOR ALL LAYERS
    PRINT BUDGET
 UBDSV1 SAVING "         STORAGE" ON UNIT  53 AT TIME STEP 75, STRESS PERIOD   3
 UBDSV2 SAVING "   CONSTANT HEAD" ON UNIT  53 AT TIME STEP 75, STRESS PERIOD   3
 UBDSV1 SAVING "FLOW RIGHT FACE " ON UNIT  53 AT TIME STEP 75, STRESS PERIOD   3
 UBDSV1 SAVING "FLOW FRONT FACE " ON UNIT  53 AT TIME STEP 75, STRESS PERIOD   3
1
              HEAD IN LAYER   1 AT END OF TIME STEP  75 IN STRESS PERIOD    3
  ---------------------------------------------------------------------------

            1           2           3           4           5           6           7           8           9          10
 ........................................................................................................................
   1    9.995       9.528       8.996       8.342       7.518       6.486       5.214       3.692       1.941      1.9597E-02
   2    9.995       9.521       8.981       8.318       7.487       6.461       5.198       3.683       1.938      1.9560E-02
   3    9.995       9.509       8.951       8.263       7.410       6.404       5.166       3.667       1.931      1.9493E-02
   4    9.995       9.494       8.910       8.170       7.239       6.309       5.121       3.648       1.924      1.9420E-02
   5    9.995       9.484       8.879       8.062       6.810       6.197       5.087       3.637       1.920      1.9383E-02
   6    9.995       9.494       8.910       8.171       7.239       6.310       5.121       3.648       1.924      1.9421E-02
   7    9.995       9.510       8.953       8.265       7.413       6.406       5.167       3.668       1.932      1.9498E-02
   8    9.995       9.523       8.985       8.322       7.493       6.466       5.202       3.686       1.939      1.9571E-02
   9    9.995       9.532       9.004       8.353       7.531       6.498       5.223       3.697       1.944      1.9622E-02
  10    9.995       9.536       9.012       8.366       7.546       6.511       5.232       3.703       1.946      1.9646E-02

 HEAD WILL BE SAVED ON UNIT   51 AT END OF TIME STEP   75, STRESS PERIOD    3

 DRAWDOWN WILL BE SAVED ON UNIT   52 AT END OF TIME STEP   75, STRESS PERIOD    3
1
  VOLUMETRIC BUDGET FOR ENTIRE MODEL AT END OF TIME STEP   75, STRESS PERIOD   3
  ------------------------------------------------------------------------------

     CUMULATIVE VOLUMES      L**3       RATES FOR THIS TIME STEP      L**3/T
     ------------------                 ------------------------

           IN:                                      IN:
           ---                                      ---
             STORAGE =      386980.6250               STORAGE =         788.3616
       CONSTANT HEAD =           0.0000         CONSTANT HEAD =           0.0000
               WELLS =           0.0000                 WELLS =           0.0000
     HEAD DEP BOUNDS =       16805.1035       HEAD DEP BOUNDS =         287.6893

            TOTAL IN =      403785.7188              TOTAL IN =        1076.0509

          OUT:                                     OUT:
          ----                                     ----
             STORAGE =           0.0000               STORAGE =           0.0000
       CONSTANT HEAD =           0.0000         CONSTANT HEAD =           0.0000
               WELLS =        7500.0000                 WELLS =         100.0000
     HEAD DEP BOUNDS =      396285.7500       HEAD DEP BOUNDS =         976.0571

           TOTAL OUT =      403785.7500             TOTAL OUT =        1076.0571

            IN - OUT =      -3.1250E-02              IN - OUT =      -6.2256E-03

 PERCENT DISCREPANCY =          -0.00     PERCENT DISCREPANCY =          -0.00






         TIME SUMMARY AT END OF TIME STEP   75 IN STRESS PERIOD    3
                    SECONDS     MINUTES      HOURS       DAYS        YEARS
                    -----------------------------------------------------------
   TIME STEP LENGTH  86400.      1440.0      24.000      1.0000     2.73785E-03
 STRESS PERIOD TIME 6.48000E+06 1.08000E+05  1800.0      75.000     0.20534    
         TOTAL TIME 1.52064E+07 2.53440E+05  4224.0      176.00     0.48186    
1
 
 SOLVING FOR HEAD 

 OUTPUT CONTROL FOR STRESS PERIOD    3   TIME STEP   76
    SAVE HEAD FOR ALL LAYERS
    SAVE DRAWDOWN FOR ALL LAYERS
    SAVE BUDGET
    PRINT HEAD FOR ALL LAYERS
    PRINT BUDGET
 UBDSV1 SAVING "         STORAGE" ON UNIT  53 AT TIME STEP 76, STRESS PERIOD   3
 UBDSV2 SAVING "   CONSTANT HEAD" ON UNIT  53 AT TIME STEP 76, STRESS PERIOD   3
 UBDSV1 SAVING "FLOW RIGHT FACE " ON UNIT  53 AT TIME STEP 76, STRESS PERIOD   3
 UBDSV1 SAVING "FLOW FRONT FACE " ON UNIT  53 AT TIME STEP 76, STRESS PERIOD   3
1
              HEAD IN LAYER   1 AT END OF TIME STEP  76 IN STRESS PERIOD    3
  ---------------------------------------------------------------------------

            1           2           3           4           5           6           7           8           9          10
 ........................................................................................................................
   1    9.995       9.524       8.988       8.331       7.505       6.472       5.201       3.682       1.936      1.9538E-02
   2    9.995       9.517       8.973       8.307       7.474       6.447       5.185       3.673       1.932      1.9501E-02
   3    9.995       9.505       8.943       8.252       7.397       6.391       5.153       3.657       1.925      1.9434E-02
   4    9.995       9.489       8.902       8.159       7.225       6.295       5.108       3.637       1.918      1.9360E-02
   5    9.995       9.480       8.871       8.051       6.796       6.183       5.074       3.626       1.914      1.9323E-02
   6    9.995       9.490       8.902       8.160       7.226       6.295       5.108       3.638       1.918      1.9362E-02
   7    9.995       9.506       8.945       8.254       7.399       6.393       5.154       3.658       1.926      1.9439E-02
   8    9.995       9.519       8.977       8.312       7.480       6.452       5.189       3.676       1.933      1.9513E-02
   9    9.995       9.528       8.996       8.343       7.518       6.484       5.210       3.687       1.938      1.9565E-02
  10    9.995       9.532       9.005       8.356       7.534       6.498       5.220       3.693       1.940      1.9589E-02

 HEAD WILL BE SAVED ON UNIT   51 AT END OF TIME STEP   76, STRESS PERIOD    3

 DRAWDOWN WILL BE SAVED ON UNIT   52 AT END OF TIME STEP   76, STRESS PERIOD    3
1
  VOLUMETRIC BUDGET FOR ENTIRE MODEL AT END OF TIME STEP   76, STRESS PERIOD   3
  ------------------------------------------------------------------------------

     CUMULATIVE VOLUMES      L**3       RATES FOR THIS TIME STEP      L**3/T
     ------------------                 ------------------------

           IN:                                      IN:
           ---                                      ---
             STORAGE =      387763.6562               STORAGE =         783.0405
       CONSTANT HEAD =           0.0000         CONSTANT HEAD =           0.0000
               WELLS =           0.0000                 WELLS =           0.0000
     HEAD DEP BOUNDS =       17095.1797       HEAD DEP BOUNDS =         290.0757

            TOTAL IN =      404858.8438              TOTAL IN =        1073.1162

          OUT:                                     OUT:
          ----                                     ----
             STORAGE =           0.0000               STORAGE =           0.0000
       CONSTANT HEAD =           0.0000         CONSTANT HEAD =           0.0000
               WELLS =        7600.0000                 WELLS =         100.0000
     HEAD DEP BOUNDS =      397258.8750       HEAD DEP BOUNDS =         973.1259

           TOTAL OUT =      404858.8750             TOTAL OUT =        1073.1259

            IN - OUT =      -3.1250E-02              IN - OUT =      -9.6436E-03

 PERCENT DISCREPANCY =          -0.00     PERCENT DISCREPANCY =          -0.00






         TIME SUMMARY AT END OF TIME STEP   76 IN STRESS PERIOD    3
                    SECONDS     MINUTES      HOURS       DAYS        YEARS
                    -----------------------------------------------------------
   TIME STEP LENGTH  86400.      1440.0      24.000      1.0000     2.73785E-03
 STRESS PERIOD TIME 6.56640E+06 1.09440E+05  1824.0      76.000     0.20808    
         TOTAL TIME 1.52928E+07 2.54880E+05  4248.0      177.00     0.48460    
1
 
 SOLVING FOR HEAD 

 OUTPUT CONTROL FOR STRESS PERIOD    3   TIME STEP   77
    SAVE HEAD FOR ALL LAYERS
    SAVE DRAWDOWN FOR ALL LAYERS
    SAVE BUDGET
    PRINT HEAD FOR ALL LAYERS
    PRINT BUDGET
 UBDSV1 SAVING "         STORAGE" ON UNIT  53 AT TIME STEP 77, STRESS PERIOD   3
 UBDSV2 SAVING "   CONSTANT HEAD" ON UNIT  53 AT TIME STEP 77, STRESS PERIOD   3
 UBDSV1 SAVING "FLOW RIGHT FACE " ON UNIT  53 AT TIME STEP 77, STRESS PERIOD   3
 UBDSV1 SAVING "FLOW FRONT FACE " ON UNIT  53 AT TIME STEP 77, STRESS PERIOD   3
1
              HEAD IN LAYER   1 AT END OF TIME STEP  77 IN STRESS PERIOD    3
  ---------------------------------------------------------------------------

            1           2           3           4           5           6           7           8           9          10
 ........................................................................................................................
   1    9.995       9.520       8.980       8.320       7.492       6.459       5.189       3.672       1.930      1.9481E-02
   2    9.995       9.513       8.966       8.296       7.461       6.434       5.173       3.663       1.926      1.9443E-02
   3    9.995       9.501       8.935       8.241       7.384       6.377       5.140       3.647       1.920      1.9375E-02
   4    9.995       9.485       8.894       8.148       7.212       6.281       5.095       3.627       1.912      1.9300E-02
   5    9.995       9.476       8.862       8.039       6.783       6.168       5.061       3.616       1.909      1.9263E-02
   6    9.995       9.485       8.894       8.149       7.213       6.281       5.095       3.627       1.912      1.9302E-02
   7    9.995       9.501       8.937       8.243       7.386       6.379       5.141       3.648       1.920      1.9381E-02
   8    9.995       9.515       8.969       8.301       7.467       6.439       5.177       3.666       1.927      1.9456E-02
   9    9.995       9.524       8.989       8.332       7.506       6.471       5.198       3.678       1.933      1.9508E-02
  10    9.995       9.528       8.997       8.345       7.522       6.485       5.207       3.683       1.935      1.9534E-02

 HEAD WILL BE SAVED ON UNIT   51 AT END OF TIME STEP   77, STRESS PERIOD    3

 DRAWDOWN WILL BE SAVED ON UNIT   52 AT END OF TIME STEP   77, STRESS PERIOD    3
1
  VOLUMETRIC BUDGET FOR ENTIRE MODEL AT END OF TIME STEP   77, STRESS PERIOD   3
  ------------------------------------------------------------------------------

     CUMULATIVE VOLUMES      L**3       RATES FOR THIS TIME STEP      L**3/T
     ------------------                 ------------------------

           IN:                                      IN:
           ---                                      ---
             STORAGE =      388541.4062               STORAGE =         777.7546
       CONSTANT HEAD =           0.0000         CONSTANT HEAD =           0.0000
               WELLS =           0.0000                 WELLS =           0.0000
     HEAD DEP BOUNDS =       17387.6309       HEAD DEP BOUNDS =         292.4516

            TOTAL IN =      405929.0312              TOTAL IN =        1070.2062

          OUT:                                     OUT:
          ----                                     ----
             STORAGE =           0.0000               STORAGE =           0.0000
       CONSTANT HEAD =           0.0000         CONSTANT HEAD =           0.0000
               WELLS =        7700.0000                 WELLS =         100.0000
     HEAD DEP BOUNDS =      398229.0938       HEAD DEP BOUNDS =         970.2189

           TOTAL OUT =      405929.0938             TOTAL OUT =        1070.2189

            IN - OUT =      -6.2500E-02              IN - OUT =      -1.2695E-02

 PERCENT DISCREPANCY =          -0.00     PERCENT DISCREPANCY =          -0.00






         TIME SUMMARY AT END OF TIME STEP   77 IN STRESS PERIOD    3
                    SECONDS     MINUTES      HOURS       DAYS        YEARS
                    -----------------------------------------------------------
   TIME STEP LENGTH  86400.      1440.0      24.000      1.0000     2.73785E-03
 STRESS PERIOD TIME 6.65280E+06 1.10880E+05  1848.0      77.000     0.21081    
         TOTAL TIME 1.53792E+07 2.56320E+05  4272.0      178.00     0.48734    
1
 
 SOLVING FOR HEAD 

 OUTPUT CONTROL FOR STRESS PERIOD    3   TIME STEP   78
    SAVE HEAD FOR ALL LAYERS
    SAVE DRAWDOWN FOR ALL LAYERS
    SAVE BUDGET
    PRINT HEAD FOR ALL LAYERS
    PRINT BUDGET
 UBDSV1 SAVING "         STORAGE" ON UNIT  53 AT TIME STEP 78, STRESS PERIOD   3
 UBDSV2 SAVING "   CONSTANT HEAD" ON UNIT  53 AT TIME STEP 78, STRESS PERIOD   3
 UBDSV1 SAVING "FLOW RIGHT FACE " ON UNIT  53 AT TIME STEP 78, STRESS PERIOD   3
 UBDSV1 SAVING "FLOW FRONT FACE " ON UNIT  53 AT TIME STEP 78, STRESS PERIOD   3
1
              HEAD IN LAYER   1 AT END OF TIME STEP  78 IN STRESS PERIOD    3
  ---------------------------------------------------------------------------

            1           2           3           4           5           6           7           8           9          10
 ........................................................................................................................
   1    9.995       9.516       8.973       8.310       7.480       6.446       5.176       3.662       1.924      1.9424E-02
   2    9.995       9.509       8.958       8.285       7.449       6.420       5.160       3.653       1.921      1.9386E-02
   3    9.995       9.497       8.928       8.230       7.371       6.363       5.127       3.637       1.914      1.9317E-02
   4    9.995       9.481       8.886       8.137       7.198       6.267       5.082       3.617       1.906      1.9242E-02
   5    9.995       9.472       8.854       8.028       6.769       6.154       5.048       3.606       1.903      1.9204E-02
   6    9.995       9.481       8.886       8.138       7.199       6.267       5.082       3.617       1.907      1.9244E-02
   7    9.995       9.497       8.929       8.232       7.373       6.365       5.129       3.638       1.914      1.9323E-02
   8    9.995       9.511       8.962       8.290       7.455       6.426       5.164       3.656       1.922      1.9399E-02
   9    9.995       9.520       8.981       8.322       7.494       6.458       5.186       3.668       1.927      1.9452E-02
  10    9.995       9.525       8.990       8.335       7.509       6.472       5.195       3.674       1.930      1.9478E-02

 HEAD WILL BE SAVED ON UNIT   51 AT END OF TIME STEP   78, STRESS PERIOD    3

 DRAWDOWN WILL BE SAVED ON UNIT   52 AT END OF TIME STEP   78, STRESS PERIOD    3
1
  VOLUMETRIC BUDGET FOR ENTIRE MODEL AT END OF TIME STEP   78, STRESS PERIOD   3
  ------------------------------------------------------------------------------

     CUMULATIVE VOLUMES      L**3       RATES FOR THIS TIME STEP      L**3/T
     ------------------                 ------------------------

           IN:                                      IN:
           ---                                      ---
             STORAGE =      389313.9062               STORAGE =         772.5120
       CONSTANT HEAD =           0.0000         CONSTANT HEAD =           0.0000
               WELLS =           0.0000                 WELLS =           0.0000
     HEAD DEP BOUNDS =       17682.4414       HEAD DEP BOUNDS =         294.8106

            TOTAL IN =      406996.3438              TOTAL IN =        1067.3226

          OUT:                                     OUT:
          ----                                     ----
             STORAGE =           0.0000               STORAGE =           0.0000
       CONSTANT HEAD =           0.0000         CONSTANT HEAD =           0.0000
               WELLS =        7800.0000                 WELLS =         100.0000
     HEAD DEP BOUNDS =      399196.4375       HEAD DEP BOUNDS =         967.3397

           TOTAL OUT =      406996.4375             TOTAL OUT =        1067.3397

            IN - OUT =      -9.3750E-02              IN - OUT =      -1.7090E-02

 PERCENT DISCREPANCY =          -0.00     PERCENT DISCREPANCY =          -0.00






         TIME SUMMARY AT END OF TIME STEP   78 IN STRESS PERIOD    3
                    SECONDS     MINUTES      HOURS       DAYS        YEARS
                    -----------------------------------------------------------
   TIME STEP LENGTH  86400.      1440.0      24.000      1.0000     2.73785E-03
 STRESS PERIOD TIME 6.73920E+06 1.12320E+05  1872.0      78.000     0.21355    
         TOTAL TIME 1.54656E+07 2.57760E+05  4296.0      179.00     0.49008    
1
 
 SOLVING FOR HEAD 

 OUTPUT CONTROL FOR STRESS PERIOD    3   TIME STEP   79
    SAVE HEAD FOR ALL LAYERS
    SAVE DRAWDOWN FOR ALL LAYERS
    SAVE BUDGET
    PRINT HEAD FOR ALL LAYERS
    PRINT BUDGET
 UBDSV1 SAVING "         STORAGE" ON UNIT  53 AT TIME STEP 79, STRESS PERIOD   3
 UBDSV2 SAVING "   CONSTANT HEAD" ON UNIT  53 AT TIME STEP 79, STRESS PERIOD   3
 UBDSV1 SAVING "FLOW RIGHT FACE " ON UNIT  53 AT TIME STEP 79, STRESS PERIOD   3
 UBDSV1 SAVING "FLOW FRONT FACE " ON UNIT  53 AT TIME STEP 79, STRESS PERIOD   3
1
              HEAD IN LAYER   1 AT END OF TIME STEP  79 IN STRESS PERIOD    3
  ---------------------------------------------------------------------------

            1           2           3           4           5           6           7           8           9          10
 ........................................................................................................................
   1    9.995       9.512       8.965       8.299       7.467       6.432       5.164       3.652       1.919      1.9368E-02
   2    9.995       9.505       8.950       8.274       7.436       6.407       5.147       3.644       1.915      1.9329E-02
   3    9.995       9.493       8.920       8.219       7.358       6.349       5.114       3.627       1.908      1.9259E-02
   4    9.995       9.477       8.878       8.126       7.185       6.253       5.069       3.607       1.901      1.9183E-02
   5    9.995       9.468       8.846       8.017       6.756       6.140       5.035       3.595       1.897      1.9145E-02
   6    9.995       9.477       8.878       8.126       7.186       6.254       5.069       3.607       1.901      1.9185E-02
   7    9.995       9.493       8.921       8.221       7.360       6.352       5.116       3.628       1.909      1.9265E-02
   8    9.995       9.507       8.954       8.280       7.442       6.412       5.152       3.646       1.916      1.9342E-02
   9    9.995       9.516       8.974       8.312       7.481       6.445       5.174       3.658       1.922      1.9396E-02
  10    9.995       9.521       8.983       8.325       7.497       6.459       5.183       3.664       1.924      1.9423E-02

 HEAD WILL BE SAVED ON UNIT   51 AT END OF TIME STEP   79, STRESS PERIOD    3

 DRAWDOWN WILL BE SAVED ON UNIT   52 AT END OF TIME STEP   79, STRESS PERIOD    3
1
  VOLUMETRIC BUDGET FOR ENTIRE MODEL AT END OF TIME STEP   79, STRESS PERIOD   3
  ------------------------------------------------------------------------------

     CUMULATIVE VOLUMES      L**3       RATES FOR THIS TIME STEP      L**3/T
     ------------------                 ------------------------

           IN:                                      IN:
           ---                                      ---
             STORAGE =      390081.2188               STORAGE =         767.3055
       CONSTANT HEAD =           0.0000         CONSTANT HEAD =           0.0000
               WELLS =           0.0000                 WELLS =           0.0000
     HEAD DEP BOUNDS =       17979.6133       HEAD DEP BOUNDS =         297.1724

            TOTAL IN =      408060.8438              TOTAL IN =        1064.4779

          OUT:                                     OUT:
          ----                                     ----
             STORAGE =           0.0000               STORAGE =           0.0000
       CONSTANT HEAD =           0.0000         CONSTANT HEAD =           0.0000
               WELLS =        7900.0000                 WELLS =         100.0000
     HEAD DEP BOUNDS =      400160.9062       HEAD DEP BOUNDS =         964.4788

           TOTAL OUT =      408060.9062             TOTAL OUT =        1064.4788

            IN - OUT =      -6.2500E-02              IN - OUT =      -8.5449E-04

 PERCENT DISCREPANCY =          -0.00     PERCENT DISCREPANCY =          -0.00






         TIME SUMMARY AT END OF TIME STEP   79 IN STRESS PERIOD    3
                    SECONDS     MINUTES      HOURS       DAYS        YEARS
                    -----------------------------------------------------------
   TIME STEP LENGTH  86400.      1440.0      24.000      1.0000     2.73785E-03
 STRESS PERIOD TIME 6.82560E+06 1.13760E+05  1896.0      79.000     0.21629    
         TOTAL TIME 1.55520E+07 2.59200E+05  4320.0      180.00     0.49281    
1
 
 SOLVING FOR HEAD 

 OUTPUT CONTROL FOR STRESS PERIOD    3   TIME STEP   80
    SAVE HEAD FOR ALL LAYERS
    SAVE DRAWDOWN FOR ALL LAYERS
    SAVE BUDGET
    PRINT HEAD FOR ALL LAYERS
    PRINT BUDGET
 UBDSV1 SAVING "         STORAGE" ON UNIT  53 AT TIME STEP 80, STRESS PERIOD   3
 UBDSV2 SAVING "   CONSTANT HEAD" ON UNIT  53 AT TIME STEP 80, STRESS PERIOD   3
 UBDSV1 SAVING "FLOW RIGHT FACE " ON UNIT  53 AT TIME STEP 80, STRESS PERIOD   3
 UBDSV1 SAVING "FLOW FRONT FACE " ON UNIT  53 AT TIME STEP 80, STRESS PERIOD   3
1
              HEAD IN LAYER   1 AT END OF TIME STEP  80 IN STRESS PERIOD    3
  ---------------------------------------------------------------------------

            1           2           3           4           5           6           7           8           9          10
 ........................................................................................................................
   1    9.995       9.508       8.958       8.289       7.455       6.419       5.152       3.643       1.913      1.9311E-02
   2    9.995       9.501       8.943       8.264       7.423       6.393       5.135       3.634       1.910      1.9272E-02
   3    9.995       9.488       8.912       8.208       7.345       6.336       5.102       3.617       1.903      1.9202E-02
   4    9.995       9.473       8.870       8.115       7.172       6.239       5.056       3.597       1.895      1.9125E-02
   5    9.995       9.464       8.839       8.006       6.742       6.126       5.022       3.585       1.891      1.9087E-02
   6    9.995       9.473       8.871       8.115       7.173       6.240       5.057       3.597       1.895      1.9127E-02
   7    9.995       9.489       8.914       8.210       7.348       6.338       5.103       3.618       1.903      1.9208E-02
   8    9.995       9.504       8.947       8.269       7.430       6.399       5.140       3.637       1.911      1.9286E-02
   9    9.995       9.513       8.967       8.301       7.469       6.432       5.161       3.649       1.916      1.9341E-02
  10    9.995       9.517       8.976       8.315       7.485       6.446       5.171       3.655       1.919      1.9368E-02

 HEAD WILL BE SAVED ON UNIT   51 AT END OF TIME STEP   80, STRESS PERIOD    3

 DRAWDOWN WILL BE SAVED ON UNIT   52 AT END OF TIME STEP   80, STRESS PERIOD    3
1
  VOLUMETRIC BUDGET FOR ENTIRE MODEL AT END OF TIME STEP   80, STRESS PERIOD   3
  ------------------------------------------------------------------------------

     CUMULATIVE VOLUMES      L**3       RATES FOR THIS TIME STEP      L**3/T
     ------------------                 ------------------------

           IN:                                      IN:
           ---                                      ---
             STORAGE =      390843.3438               STORAGE =         762.1315
       CONSTANT HEAD =           0.0000         CONSTANT HEAD =           0.0000
               WELLS =           0.0000                 WELLS =           0.0000
     HEAD DEP BOUNDS =       18279.1230       HEAD DEP BOUNDS =         299.5105

            TOTAL IN =      409122.4688              TOTAL IN =        1061.6420

          OUT:                                     OUT:
          ----                                     ----
             STORAGE =           0.0000               STORAGE =           0.0000
       CONSTANT HEAD =           0.0000         CONSTANT HEAD =           0.0000
               WELLS =        8000.0000                 WELLS =         100.0000
     HEAD DEP BOUNDS =      401122.5625       HEAD DEP BOUNDS =         961.6454

           TOTAL OUT =      409122.5625             TOTAL OUT =        1061.6455

            IN - OUT =      -9.3750E-02              IN - OUT =      -3.5400E-03

 PERCENT DISCREPANCY =          -0.00     PERCENT DISCREPANCY =          -0.00






         TIME SUMMARY AT END OF TIME STEP   80 IN STRESS PERIOD    3
                    SECONDS     MINUTES      HOURS       DAYS        YEARS
                    -----------------------------------------------------------
   TIME STEP LENGTH  86400.      1440.0      24.000      1.0000     2.73785E-03
 STRESS PERIOD TIME 6.91200E+06 1.15200E+05  1920.0      80.000     0.21903    
         TOTAL TIME 1.56384E+07 2.60640E+05  4344.0      181.00     0.49555    
1
 
 SOLVING FOR HEAD 

 OUTPUT CONTROL FOR STRESS PERIOD    3   TIME STEP   81
    SAVE HEAD FOR ALL LAYERS
    SAVE DRAWDOWN FOR ALL LAYERS
    SAVE BUDGET
    PRINT HEAD FOR ALL LAYERS
    PRINT BUDGET
 UBDSV1 SAVING "         STORAGE" ON UNIT  53 AT TIME STEP 81, STRESS PERIOD   3
 UBDSV2 SAVING "   CONSTANT HEAD" ON UNIT  53 AT TIME STEP 81, STRESS PERIOD   3
 UBDSV1 SAVING "FLOW RIGHT FACE " ON UNIT  53 AT TIME STEP 81, STRESS PERIOD   3
 UBDSV1 SAVING "FLOW FRONT FACE " ON UNIT  53 AT TIME STEP 81, STRESS PERIOD   3
1
              HEAD IN LAYER   1 AT END OF TIME STEP  81 IN STRESS PERIOD    3
  ---------------------------------------------------------------------------

            1           2           3           4           5           6           7           8           9          10
 ........................................................................................................................
   1    9.995       9.504       8.950       8.278       7.442       6.406       5.139       3.633       1.908      1.9256E-02
   2    9.995       9.497       8.935       8.253       7.411       6.380       5.123       3.624       1.904      1.9216E-02
   3    9.995       9.484       8.904       8.197       7.332       6.322       5.089       3.607       1.897      1.9145E-02
   4    9.995       9.469       8.862       8.104       7.159       6.225       5.043       3.587       1.890      1.9068E-02
   5    9.995       9.459       8.831       7.995       6.729       6.113       5.009       3.575       1.886      1.9029E-02
   6    9.995       9.469       8.863       8.105       7.160       6.226       5.044       3.587       1.890      1.9070E-02
   7    9.995       9.485       8.906       8.200       7.335       6.325       5.091       3.608       1.898      1.9152E-02
   8    9.995       9.500       8.939       8.259       7.417       6.386       5.127       3.627       1.906      1.9231E-02
   9    9.995       9.509       8.959       8.291       7.457       6.419       5.150       3.640       1.911      1.9287E-02
  10    9.995       9.513       8.969       8.305       7.473       6.434       5.160       3.645       1.914      1.9314E-02

 HEAD WILL BE SAVED ON UNIT   51 AT END OF TIME STEP   81, STRESS PERIOD    3

 DRAWDOWN WILL BE SAVED ON UNIT   52 AT END OF TIME STEP   81, STRESS PERIOD    3
1
  VOLUMETRIC BUDGET FOR ENTIRE MODEL AT END OF TIME STEP   81, STRESS PERIOD   3
  ------------------------------------------------------------------------------

     CUMULATIVE VOLUMES      L**3       RATES FOR THIS TIME STEP      L**3/T
     ------------------                 ------------------------

           IN:                                      IN:
           ---                                      ---
             STORAGE =      391600.3438               STORAGE =         756.9921
       CONSTANT HEAD =           0.0000         CONSTANT HEAD =           0.0000
               WELLS =           0.0000                 WELLS =           0.0000
     HEAD DEP BOUNDS =       18580.9609       HEAD DEP BOUNDS =         301.8383

            TOTAL IN =      410181.3125              TOTAL IN =        1058.8303

          OUT:                                     OUT:
          ----                                     ----
             STORAGE =           0.0000               STORAGE =           0.0000
       CONSTANT HEAD =           0.0000         CONSTANT HEAD =           0.0000
               WELLS =        8100.0000                 WELLS =         100.0000
     HEAD DEP BOUNDS =      402081.4062       HEAD DEP BOUNDS =         958.8314

           TOTAL OUT =      410181.4062             TOTAL OUT =        1058.8313

            IN - OUT =      -9.3750E-02              IN - OUT =      -9.7656E-04

 PERCENT DISCREPANCY =          -0.00     PERCENT DISCREPANCY =          -0.00






         TIME SUMMARY AT END OF TIME STEP   81 IN STRESS PERIOD    3
                    SECONDS     MINUTES      HOURS       DAYS        YEARS
                    -----------------------------------------------------------
   TIME STEP LENGTH  86400.      1440.0      24.000      1.0000     2.73785E-03
 STRESS PERIOD TIME 6.99840E+06 1.16640E+05  1944.0      81.000     0.22177    
         TOTAL TIME 1.57248E+07 2.62080E+05  4368.0      182.00     0.49829    
1
 
 SOLVING FOR HEAD 

 OUTPUT CONTROL FOR STRESS PERIOD    3   TIME STEP   82
    SAVE HEAD FOR ALL LAYERS
    SAVE DRAWDOWN FOR ALL LAYERS
    SAVE BUDGET
    PRINT HEAD FOR ALL LAYERS
    PRINT BUDGET
 UBDSV1 SAVING "         STORAGE" ON UNIT  53 AT TIME STEP 82, STRESS PERIOD   3
 UBDSV2 SAVING "   CONSTANT HEAD" ON UNIT  53 AT TIME STEP 82, STRESS PERIOD   3
 UBDSV1 SAVING "FLOW RIGHT FACE " ON UNIT  53 AT TIME STEP 82, STRESS PERIOD   3
 UBDSV1 SAVING "FLOW FRONT FACE " ON UNIT  53 AT TIME STEP 82, STRESS PERIOD   3
1
              HEAD IN LAYER   1 AT END OF TIME STEP  82 IN STRESS PERIOD    3
  ---------------------------------------------------------------------------

            1           2           3           4           5           6           7           8           9          10
 ........................................................................................................................
   1    9.995       9.500       8.943       8.268       7.430       6.393       5.127       3.624       1.903      1.9201E-02
   2    9.995       9.494       8.928       8.243       7.398       6.367       5.111       3.614       1.899      1.9161E-02
   3    9.995       9.480       8.897       8.187       7.319       6.309       5.077       3.597       1.892      1.9089E-02
   4    9.995       9.465       8.854       8.093       7.146       6.212       5.031       3.577       1.884      1.9011E-02
   5    9.995       9.455       8.823       7.984       6.716       6.099       4.997       3.565       1.880      1.8972E-02
   6    9.995       9.465       8.855       8.094       7.147       6.213       5.031       3.577       1.884      1.9013E-02
   7    9.995       9.481       8.898       8.189       7.322       6.311       5.079       3.599       1.892      1.9095E-02
   8    9.995       9.496       8.932       8.249       7.405       6.373       5.115       3.618       1.900      1.9176E-02
   9    9.995       9.505       8.952       8.281       7.445       6.407       5.138       3.630       1.906      1.9232E-02
  10    9.995       9.510       8.961       8.295       7.461       6.421       5.148       3.636       1.908      1.9260E-02

 HEAD WILL BE SAVED ON UNIT   51 AT END OF TIME STEP   82, STRESS PERIOD    3

 DRAWDOWN WILL BE SAVED ON UNIT   52 AT END OF TIME STEP   82, STRESS PERIOD    3
1
  VOLUMETRIC BUDGET FOR ENTIRE MODEL AT END OF TIME STEP   82, STRESS PERIOD   3
  ------------------------------------------------------------------------------

     CUMULATIVE VOLUMES      L**3       RATES FOR THIS TIME STEP      L**3/T
     ------------------                 ------------------------

           IN:                                      IN:
           ---                                      ---
             STORAGE =      392352.2188               STORAGE =         751.8875
       CONSTANT HEAD =           0.0000         CONSTANT HEAD =           0.0000
               WELLS =           0.0000                 WELLS =           0.0000
     HEAD DEP BOUNDS =       18885.1172       HEAD DEP BOUNDS =         304.1555

            TOTAL IN =      411237.3438              TOTAL IN =        1056.0430

          OUT:                                     OUT:
          ----                                     ----
             STORAGE =           0.0000               STORAGE =           0.0000
       CONSTANT HEAD =           0.0000         CONSTANT HEAD =           0.0000
               WELLS =        8200.0000                 WELLS =         100.0000
     HEAD DEP BOUNDS =      403037.4375       HEAD DEP BOUNDS =         956.0411

           TOTAL OUT =      411237.4375             TOTAL OUT =        1056.0411

            IN - OUT =      -9.3750E-02              IN - OUT =       1.8311E-03

 PERCENT DISCREPANCY =          -0.00     PERCENT DISCREPANCY =           0.00






         TIME SUMMARY AT END OF TIME STEP   82 IN STRESS PERIOD    3
                    SECONDS     MINUTES      HOURS       DAYS        YEARS
                    -----------------------------------------------------------
   TIME STEP LENGTH  86400.      1440.0      24.000      1.0000     2.73785E-03
 STRESS PERIOD TIME 7.08480E+06 1.18080E+05  1968.0      82.000     0.22450    
         TOTAL TIME 1.58112E+07 2.63520E+05  4392.0      183.00     0.50103    
1
 
 SOLVING FOR HEAD 

 OUTPUT CONTROL FOR STRESS PERIOD    3   TIME STEP   83
    SAVE HEAD FOR ALL LAYERS
    SAVE DRAWDOWN FOR ALL LAYERS
    SAVE BUDGET
    PRINT HEAD FOR ALL LAYERS
    PRINT BUDGET
 UBDSV1 SAVING "         STORAGE" ON UNIT  53 AT TIME STEP 83, STRESS PERIOD   3
 UBDSV2 SAVING "   CONSTANT HEAD" ON UNIT  53 AT TIME STEP 83, STRESS PERIOD   3
 UBDSV1 SAVING "FLOW RIGHT FACE " ON UNIT  53 AT TIME STEP 83, STRESS PERIOD   3
 UBDSV1 SAVING "FLOW FRONT FACE " ON UNIT  53 AT TIME STEP 83, STRESS PERIOD   3
1
              HEAD IN LAYER   1 AT END OF TIME STEP  83 IN STRESS PERIOD    3
  ---------------------------------------------------------------------------

            1           2           3           4           5           6           7           8           9          10
 ........................................................................................................................
   1    9.995       9.497       8.935       8.258       7.418       6.380       5.115       3.614       1.897      1.9146E-02
   2    9.995       9.490       8.920       8.232       7.386       6.354       5.098       3.605       1.893      1.9105E-02
   3    9.995       9.477       8.889       8.176       7.307       6.295       5.064       3.588       1.886      1.9033E-02
   4    9.995       9.461       8.847       8.082       7.133       6.198       5.018       3.567       1.879      1.8954E-02
   5    9.995       9.451       8.815       7.973       6.703       6.085       4.984       3.556       1.875      1.8915E-02
   6    9.995       9.461       8.847       8.083       7.134       6.199       5.019       3.568       1.879      1.8957E-02
   7    9.995       9.478       8.891       8.179       7.310       6.298       5.066       3.589       1.887      1.9040E-02
   8    9.995       9.492       8.925       8.238       7.393       6.360       5.103       3.608       1.895      1.9121E-02
   9    9.995       9.501       8.945       8.271       7.433       6.394       5.126       3.621       1.900      1.9178E-02
  10    9.995       9.506       8.954       8.285       7.449       6.408       5.136       3.627       1.903      1.9206E-02

 HEAD WILL BE SAVED ON UNIT   51 AT END OF TIME STEP   83, STRESS PERIOD    3

 DRAWDOWN WILL BE SAVED ON UNIT   52 AT END OF TIME STEP   83, STRESS PERIOD    3
1
  VOLUMETRIC BUDGET FOR ENTIRE MODEL AT END OF TIME STEP   83, STRESS PERIOD   3
  ------------------------------------------------------------------------------

     CUMULATIVE VOLUMES      L**3       RATES FOR THIS TIME STEP      L**3/T
     ------------------                 ------------------------

           IN:                                      IN:
           ---                                      ---
             STORAGE =      393099.0312               STORAGE =         746.8168
       CONSTANT HEAD =           0.0000         CONSTANT HEAD =           0.0000
               WELLS =           0.0000                 WELLS =           0.0000
     HEAD DEP BOUNDS =       19191.5801       HEAD DEP BOUNDS =         306.4620

            TOTAL IN =      412290.6250              TOTAL IN =        1053.2788

          OUT:                                     OUT:
          ----                                     ----
             STORAGE =           0.0000               STORAGE =           0.0000
       CONSTANT HEAD =           0.0000         CONSTANT HEAD =           0.0000
               WELLS =        8300.0000                 WELLS =         100.0000
     HEAD DEP BOUNDS =      403990.7188       HEAD DEP BOUNDS =         953.2755

           TOTAL OUT =      412290.7188             TOTAL OUT =        1053.2755

            IN - OUT =      -9.3750E-02              IN - OUT =       3.2959E-03

 PERCENT DISCREPANCY =          -0.00     PERCENT DISCREPANCY =           0.00






         TIME SUMMARY AT END OF TIME STEP   83 IN STRESS PERIOD    3
                    SECONDS     MINUTES      HOURS       DAYS        YEARS
                    -----------------------------------------------------------
   TIME STEP LENGTH  86400.      1440.0      24.000      1.0000     2.73785E-03
 STRESS PERIOD TIME 7.17120E+06 1.19520E+05  1992.0      83.000     0.22724    
         TOTAL TIME 1.58976E+07 2.64960E+05  4416.0      184.00     0.50376    
1
 
 SOLVING FOR HEAD 

 OUTPUT CONTROL FOR STRESS PERIOD    3   TIME STEP   84
    SAVE HEAD FOR ALL LAYERS
    SAVE DRAWDOWN FOR ALL LAYERS
    SAVE BUDGET
    PRINT HEAD FOR ALL LAYERS
    PRINT BUDGET
 UBDSV1 SAVING "         STORAGE" ON UNIT  53 AT TIME STEP 84, STRESS PERIOD   3
 UBDSV2 SAVING "   CONSTANT HEAD" ON UNIT  53 AT TIME STEP 84, STRESS PERIOD   3
 UBDSV1 SAVING "FLOW RIGHT FACE " ON UNIT  53 AT TIME STEP 84, STRESS PERIOD   3
 UBDSV1 SAVING "FLOW FRONT FACE " ON UNIT  53 AT TIME STEP 84, STRESS PERIOD   3
1
              HEAD IN LAYER   1 AT END OF TIME STEP  84 IN STRESS PERIOD    3
  ---------------------------------------------------------------------------

            1           2           3           4           5           6           7           8           9          10
 ........................................................................................................................
   1    9.995       9.493       8.928       8.247       7.405       6.367       5.103       3.605       1.892      1.9091E-02
   2    9.995       9.486       8.913       8.222       7.373       6.341       5.086       3.595       1.888      1.9050E-02
   3    9.995       9.473       8.881       8.165       7.294       6.282       5.052       3.578       1.881      1.8977E-02
   4    9.995       9.457       8.839       8.071       7.120       6.185       5.006       3.558       1.873      1.8898E-02
   5    9.995       9.447       8.807       7.962       6.690       6.072       4.972       3.546       1.869      1.8859E-02
   6    9.995       9.457       8.840       8.072       7.121       6.186       5.007       3.558       1.873      1.8901E-02
   7    9.995       9.474       8.883       8.168       7.297       6.285       5.054       3.580       1.882      1.8985E-02
   8    9.995       9.488       8.917       8.228       7.380       6.347       5.091       3.599       1.890      1.9067E-02
   9    9.995       9.498       8.938       8.261       7.421       6.381       5.114       3.612       1.895      1.9125E-02
  10    9.995       9.502       8.947       8.275       7.438       6.396       5.125       3.618       1.898      1.9153E-02

 HEAD WILL BE SAVED ON UNIT   51 AT END OF TIME STEP   84, STRESS PERIOD    3

 DRAWDOWN WILL BE SAVED ON UNIT   52 AT END OF TIME STEP   84, STRESS PERIOD    3
1
  VOLUMETRIC BUDGET FOR ENTIRE MODEL AT END OF TIME STEP   84, STRESS PERIOD   3
  ------------------------------------------------------------------------------

     CUMULATIVE VOLUMES      L**3       RATES FOR THIS TIME STEP      L**3/T
     ------------------                 ------------------------

           IN:                                      IN:
           ---                                      ---
             STORAGE =      393840.8125               STORAGE =         741.7770
       CONSTANT HEAD =           0.0000         CONSTANT HEAD =           0.0000
               WELLS =           0.0000                 WELLS =           0.0000
     HEAD DEP BOUNDS =       19500.3320       HEAD DEP BOUNDS =         308.7515

            TOTAL IN =      413341.1562              TOTAL IN =        1050.5284

          OUT:                                     OUT:
          ----                                     ----
             STORAGE =           0.0000               STORAGE =           0.0000
       CONSTANT HEAD =           0.0000         CONSTANT HEAD =           0.0000
               WELLS =        8400.0000                 WELLS =         100.0000
     HEAD DEP BOUNDS =      404941.2500       HEAD DEP BOUNDS =         950.5302

           TOTAL OUT =      413341.2500             TOTAL OUT =        1050.5302

            IN - OUT =      -9.3750E-02              IN - OUT =      -1.7090E-03

 PERCENT DISCREPANCY =          -0.00     PERCENT DISCREPANCY =          -0.00






         TIME SUMMARY AT END OF TIME STEP   84 IN STRESS PERIOD    3
                    SECONDS     MINUTES      HOURS       DAYS        YEARS
                    -----------------------------------------------------------
   TIME STEP LENGTH  86400.      1440.0      24.000      1.0000     2.73785E-03
 STRESS PERIOD TIME 7.25760E+06 1.20960E+05  2016.0      84.000     0.22998    
         TOTAL TIME 1.59840E+07 2.66400E+05  4440.0      185.00     0.50650    
1
 
 SOLVING FOR HEAD 

 OUTPUT CONTROL FOR STRESS PERIOD    3   TIME STEP   85
    SAVE HEAD FOR ALL LAYERS
    SAVE DRAWDOWN FOR ALL LAYERS
    SAVE BUDGET
    PRINT HEAD FOR ALL LAYERS
    PRINT BUDGET
 UBDSV1 SAVING "         STORAGE" ON UNIT  53 AT TIME STEP 85, STRESS PERIOD   3
 UBDSV2 SAVING "   CONSTANT HEAD" ON UNIT  53 AT TIME STEP 85, STRESS PERIOD   3
 UBDSV1 SAVING "FLOW RIGHT FACE " ON UNIT  53 AT TIME STEP 85, STRESS PERIOD   3
 UBDSV1 SAVING "FLOW FRONT FACE " ON UNIT  53 AT TIME STEP 85, STRESS PERIOD   3
1
              HEAD IN LAYER   1 AT END OF TIME STEP  85 IN STRESS PERIOD    3
  ---------------------------------------------------------------------------

            1           2           3           4           5           6           7           8           9          10
 ........................................................................................................................
   1    9.995       9.489       8.921       8.237       7.393       6.354       5.092       3.596       1.887      1.9037E-02
   2    9.995       9.482       8.905       8.212       7.361       6.328       5.074       3.586       1.883      1.8996E-02
   3    9.995       9.469       8.874       8.155       7.282       6.269       5.040       3.569       1.876      1.8922E-02
   4    9.995       9.453       8.831       8.060       7.108       6.171       4.993       3.548       1.868      1.8843E-02
   5    9.995       9.443       8.800       7.951       6.677       6.058       4.959       3.536       1.864      1.8803E-02
   6    9.995       9.453       8.832       8.062       7.109       6.172       4.994       3.548       1.868      1.8845E-02
   7    9.995       9.470       8.876       8.158       7.285       6.272       5.042       3.570       1.876      1.8930E-02
   8    9.995       9.484       8.910       8.218       7.368       6.335       5.080       3.589       1.884      1.9013E-02
   9    9.995       9.494       8.931       8.251       7.409       6.369       5.103       3.603       1.890      1.9072E-02
  10    9.995       9.498       8.940       8.265       7.426       6.384       5.113       3.609       1.893      1.9101E-02

 HEAD WILL BE SAVED ON UNIT   51 AT END OF TIME STEP   85, STRESS PERIOD    3

 DRAWDOWN WILL BE SAVED ON UNIT   52 AT END OF TIME STEP   85, STRESS PERIOD    3
1
  VOLUMETRIC BUDGET FOR ENTIRE MODEL AT END OF TIME STEP   85, STRESS PERIOD   3
  ------------------------------------------------------------------------------

     CUMULATIVE VOLUMES      L**3       RATES FOR THIS TIME STEP      L**3/T
     ------------------                 ------------------------

           IN:                                      IN:
           ---                                      ---
             STORAGE =      394577.5938               STORAGE =         736.7767
       CONSTANT HEAD =           0.0000         CONSTANT HEAD =           0.0000
               WELLS =           0.0000                 WELLS =           0.0000
     HEAD DEP BOUNDS =       19811.3691       HEAD DEP BOUNDS =         311.0369

            TOTAL IN =      414388.9688              TOTAL IN =        1047.8136

          OUT:                                     OUT:
          ----                                     ----
             STORAGE =           0.0000               STORAGE =           0.0000
       CONSTANT HEAD =           0.0000         CONSTANT HEAD =           0.0000
               WELLS =        8500.0000                 WELLS =         100.0000
     HEAD DEP BOUNDS =      405889.0625       HEAD DEP BOUNDS =         947.8105

           TOTAL OUT =      414389.0625             TOTAL OUT =        1047.8105

            IN - OUT =      -9.3750E-02              IN - OUT =       3.0518E-03

 PERCENT DISCREPANCY =          -0.00     PERCENT DISCREPANCY =           0.00






         TIME SUMMARY AT END OF TIME STEP   85 IN STRESS PERIOD    3
                    SECONDS     MINUTES      HOURS       DAYS        YEARS
                    -----------------------------------------------------------
   TIME STEP LENGTH  86400.      1440.0      24.000      1.0000     2.73785E-03
 STRESS PERIOD TIME 7.34400E+06 1.22400E+05  2040.0      85.000     0.23272    
         TOTAL TIME 1.60704E+07 2.67840E+05  4464.0      186.00     0.50924    
1
 
 SOLVING FOR HEAD 

 OUTPUT CONTROL FOR STRESS PERIOD    3   TIME STEP   86
    SAVE HEAD FOR ALL LAYERS
    SAVE DRAWDOWN FOR ALL LAYERS
    SAVE BUDGET
    PRINT HEAD FOR ALL LAYERS
    PRINT BUDGET
 UBDSV1 SAVING "         STORAGE" ON UNIT  53 AT TIME STEP 86, STRESS PERIOD   3
 UBDSV2 SAVING "   CONSTANT HEAD" ON UNIT  53 AT TIME STEP 86, STRESS PERIOD   3
 UBDSV1 SAVING "FLOW RIGHT FACE " ON UNIT  53 AT TIME STEP 86, STRESS PERIOD   3
 UBDSV1 SAVING "FLOW FRONT FACE " ON UNIT  53 AT TIME STEP 86, STRESS PERIOD   3
1
              HEAD IN LAYER   1 AT END OF TIME STEP  86 IN STRESS PERIOD    3
  ---------------------------------------------------------------------------

            1           2           3           4           5           6           7           8           9          10
 ........................................................................................................................
   1    9.995       9.485       8.913       8.227       7.381       6.342       5.080       3.586       1.882      1.8984E-02
   2    9.995       9.478       8.898       8.201       7.349       6.315       5.062       3.577       1.877      1.8942E-02
   3    9.995       9.465       8.866       8.144       7.269       6.256       5.028       3.559       1.870      1.8868E-02
   4    9.995       9.449       8.824       8.050       7.095       6.158       4.981       3.538       1.862      1.8787E-02
   5    9.994       9.439       8.792       7.941       6.665       6.045       4.947       3.527       1.858      1.8748E-02
   6    9.995       9.449       8.824       8.051       7.096       6.159       4.982       3.539       1.863      1.8790E-02
   7    9.995       9.466       8.868       8.147       7.272       6.259       5.030       3.561       1.871      1.8876E-02
   8    9.995       9.481       8.903       8.208       7.356       6.322       5.068       3.580       1.879      1.8959E-02
   9    9.995       9.490       8.924       8.241       7.397       6.356       5.091       3.593       1.885      1.9019E-02
  10    9.995       9.495       8.933       8.255       7.414       6.371       5.102       3.600       1.888      1.9049E-02

 HEAD WILL BE SAVED ON UNIT   51 AT END OF TIME STEP   86, STRESS PERIOD    3

 DRAWDOWN WILL BE SAVED ON UNIT   52 AT END OF TIME STEP   86, STRESS PERIOD    3
1
  VOLUMETRIC BUDGET FOR ENTIRE MODEL AT END OF TIME STEP   86, STRESS PERIOD   3
  ------------------------------------------------------------------------------

     CUMULATIVE VOLUMES      L**3       RATES FOR THIS TIME STEP      L**3/T
     ------------------                 ------------------------

           IN:                                      IN:
           ---                                      ---
             STORAGE =      395309.4062               STORAGE =         731.8187
       CONSTANT HEAD =           0.0000         CONSTANT HEAD =           0.0000
               WELLS =           0.0000                 WELLS =           0.0000
     HEAD DEP BOUNDS =       20124.6602       HEAD DEP BOUNDS =         313.2920

            TOTAL IN =      415434.0625              TOTAL IN =        1045.1107

          OUT:                                     OUT:
          ----                                     ----
             STORAGE =           0.0000               STORAGE =           0.0000
       CONSTANT HEAD =           0.0000         CONSTANT HEAD =           0.0000
               WELLS =        8600.0000                 WELLS =         100.0000
     HEAD DEP BOUNDS =      406834.1875       HEAD DEP BOUNDS =         945.1107

           TOTAL OUT =      415434.1875             TOTAL OUT =        1045.1107

            IN - OUT =          -0.1250              IN - OUT =           0.0000

 PERCENT DISCREPANCY =          -0.00     PERCENT DISCREPANCY =           0.00






         TIME SUMMARY AT END OF TIME STEP   86 IN STRESS PERIOD    3
                    SECONDS     MINUTES      HOURS       DAYS        YEARS
                    -----------------------------------------------------------
   TIME STEP LENGTH  86400.      1440.0      24.000      1.0000     2.73785E-03
 STRESS PERIOD TIME 7.43040E+06 1.23840E+05  2064.0      86.000     0.23546    
         TOTAL TIME 1.61568E+07 2.69280E+05  4488.0      187.00     0.51198    
1
 
 SOLVING FOR HEAD 

 OUTPUT CONTROL FOR STRESS PERIOD    3   TIME STEP   87
    SAVE HEAD FOR ALL LAYERS
    SAVE DRAWDOWN FOR ALL LAYERS
    SAVE BUDGET
    PRINT HEAD FOR ALL LAYERS
    PRINT BUDGET
 UBDSV1 SAVING "         STORAGE" ON UNIT  53 AT TIME STEP 87, STRESS PERIOD   3
 UBDSV2 SAVING "   CONSTANT HEAD" ON UNIT  53 AT TIME STEP 87, STRESS PERIOD   3
 UBDSV1 SAVING "FLOW RIGHT FACE " ON UNIT  53 AT TIME STEP 87, STRESS PERIOD   3
 UBDSV1 SAVING "FLOW FRONT FACE " ON UNIT  53 AT TIME STEP 87, STRESS PERIOD   3
1
              HEAD IN LAYER   1 AT END OF TIME STEP  87 IN STRESS PERIOD    3
  ---------------------------------------------------------------------------

            1           2           3           4           5           6           7           8           9          10
 ........................................................................................................................
   1    9.995       9.481       8.906       8.217       7.369       6.329       5.068       3.577       1.876      1.8931E-02
   2    9.995       9.474       8.890       8.191       7.337       6.302       5.051       3.568       1.872      1.8888E-02
   3    9.995       9.461       8.859       8.134       7.257       6.243       5.016       3.550       1.865      1.8814E-02
   4    9.995       9.445       8.816       8.039       7.083       6.145       4.969       3.529       1.857      1.8733E-02
   5    9.994       9.435       8.784       7.930       6.652       6.032       4.935       3.517       1.853      1.8693E-02
   6    9.995       9.445       8.817       8.040       7.084       6.146       4.970       3.529       1.857      1.8736E-02
   7    9.995       9.462       8.861       8.137       7.260       6.246       5.018       3.551       1.866      1.8822E-02
   8    9.995       9.477       8.895       8.198       7.344       6.309       5.056       3.571       1.874      1.8906E-02
   9    9.995       9.487       8.917       8.231       7.386       6.344       5.080       3.584       1.880      1.8967E-02
  10    9.995       9.491       8.926       8.246       7.403       6.359       5.090       3.591       1.883      1.8997E-02

 HEAD WILL BE SAVED ON UNIT   51 AT END OF TIME STEP   87, STRESS PERIOD    3

 DRAWDOWN WILL BE SAVED ON UNIT   52 AT END OF TIME STEP   87, STRESS PERIOD    3
1
  VOLUMETRIC BUDGET FOR ENTIRE MODEL AT END OF TIME STEP   87, STRESS PERIOD   3
  ------------------------------------------------------------------------------

     CUMULATIVE VOLUMES      L**3       RATES FOR THIS TIME STEP      L**3/T
     ------------------                 ------------------------

           IN:                                      IN:
           ---                                      ---
             STORAGE =      396036.2812               STORAGE =         726.8824
       CONSTANT HEAD =           0.0000         CONSTANT HEAD =           0.0000
               WELLS =           0.0000                 WELLS =           0.0000
     HEAD DEP BOUNDS =       20440.2090       HEAD DEP BOUNDS =         315.5497

            TOTAL IN =      416476.5000              TOTAL IN =        1042.4321

          OUT:                                     OUT:
          ----                                     ----
             STORAGE =           0.0000               STORAGE =           0.0000
       CONSTANT HEAD =           0.0000         CONSTANT HEAD =           0.0000
               WELLS =        8700.0000                 WELLS =         100.0000
     HEAD DEP BOUNDS =      407776.6250       HEAD DEP BOUNDS =         942.4291

           TOTAL OUT =      416476.6250             TOTAL OUT =        1042.4291

            IN - OUT =          -0.1250              IN - OUT =       3.0518E-03

 PERCENT DISCREPANCY =          -0.00     PERCENT DISCREPANCY =           0.00






         TIME SUMMARY AT END OF TIME STEP   87 IN STRESS PERIOD    3
                    SECONDS     MINUTES      HOURS       DAYS        YEARS
                    -----------------------------------------------------------
   TIME STEP LENGTH  86400.      1440.0      24.000      1.0000     2.73785E-03
 STRESS PERIOD TIME 7.51680E+06 1.25280E+05  2088.0      87.000     0.23819    
         TOTAL TIME 1.62432E+07 2.70720E+05  4512.0      188.00     0.51472    
1
 
 SOLVING FOR HEAD 

 OUTPUT CONTROL FOR STRESS PERIOD    3   TIME STEP   88
    SAVE HEAD FOR ALL LAYERS
    SAVE DRAWDOWN FOR ALL LAYERS
    SAVE BUDGET
    PRINT HEAD FOR ALL LAYERS
    PRINT BUDGET
 UBDSV1 SAVING "         STORAGE" ON UNIT  53 AT TIME STEP 88, STRESS PERIOD   3
 UBDSV2 SAVING "   CONSTANT HEAD" ON UNIT  53 AT TIME STEP 88, STRESS PERIOD   3
 UBDSV1 SAVING "FLOW RIGHT FACE " ON UNIT  53 AT TIME STEP 88, STRESS PERIOD   3
 UBDSV1 SAVING "FLOW FRONT FACE " ON UNIT  53 AT TIME STEP 88, STRESS PERIOD   3
1
              HEAD IN LAYER   1 AT END OF TIME STEP  88 IN STRESS PERIOD    3
  ---------------------------------------------------------------------------

            1           2           3           4           5           6           7           8           9          10
 ........................................................................................................................
   1    9.995       9.478       8.899       8.207       7.357       6.317       5.056       3.568       1.871      1.8878E-02
   2    9.995       9.470       8.883       8.181       7.325       6.290       5.039       3.558       1.867      1.8835E-02
   3    9.995       9.457       8.851       8.124       7.245       6.230       5.004       3.540       1.860      1.8760E-02
   4    9.994       9.441       8.809       8.029       7.070       6.132       4.957       3.520       1.852      1.8679E-02
   5    9.994       9.431       8.777       7.919       6.639       6.019       4.923       3.508       1.848      1.8639E-02
   6    9.995       9.441       8.809       8.030       7.071       6.133       4.958       3.520       1.852      1.8682E-02
   7    9.995       9.458       8.854       8.127       7.248       6.234       5.007       3.542       1.861      1.8768E-02
   8    9.995       9.473       8.888       8.188       7.332       6.297       5.045       3.562       1.869      1.8854E-02
   9    9.995       9.483       8.909       8.221       7.374       6.332       5.068       3.575       1.875      1.8915E-02
  10    9.995       9.488       8.919       8.236       7.391       6.347       5.079       3.582       1.878      1.8946E-02

 HEAD WILL BE SAVED ON UNIT   51 AT END OF TIME STEP   88, STRESS PERIOD    3

 DRAWDOWN WILL BE SAVED ON UNIT   52 AT END OF TIME STEP   88, STRESS PERIOD    3
1
  VOLUMETRIC BUDGET FOR ENTIRE MODEL AT END OF TIME STEP   88, STRESS PERIOD   3
  ------------------------------------------------------------------------------

     CUMULATIVE VOLUMES      L**3       RATES FOR THIS TIME STEP      L**3/T
     ------------------                 ------------------------

           IN:                                      IN:
           ---                                      ---
             STORAGE =      396758.2812               STORAGE =         721.9866
       CONSTANT HEAD =           0.0000         CONSTANT HEAD =           0.0000
               WELLS =           0.0000                 WELLS =           0.0000
     HEAD DEP BOUNDS =       20758.0000       HEAD DEP BOUNDS =         317.7901

            TOTAL IN =      417516.2812              TOTAL IN =        1039.7767

          OUT:                                     OUT:
          ----                                     ----
             STORAGE =           0.0000               STORAGE =           0.0000
       CONSTANT HEAD =           0.0000         CONSTANT HEAD =           0.0000
               WELLS =        8800.0000                 WELLS =         100.0000
     HEAD DEP BOUNDS =      408716.4062       HEAD DEP BOUNDS =         939.7749

           TOTAL OUT =      417516.4062             TOTAL OUT =        1039.7749

            IN - OUT =          -0.1250              IN - OUT =       1.8311E-03

 PERCENT DISCREPANCY =          -0.00     PERCENT DISCREPANCY =           0.00






         TIME SUMMARY AT END OF TIME STEP   88 IN STRESS PERIOD    3
                    SECONDS     MINUTES      HOURS       DAYS        YEARS
                    -----------------------------------------------------------
   TIME STEP LENGTH  86400.      1440.0      24.000      1.0000     2.73785E-03
 STRESS PERIOD TIME 7.60320E+06 1.26720E+05  2112.0      88.000     0.24093    
         TOTAL TIME 1.63296E+07 2.72160E+05  4536.0      189.00     0.51745    
1
 
 SOLVING FOR HEAD 

 OUTPUT CONTROL FOR STRESS PERIOD    3   TIME STEP   89
    SAVE HEAD FOR ALL LAYERS
    SAVE DRAWDOWN FOR ALL LAYERS
    SAVE BUDGET
    PRINT HEAD FOR ALL LAYERS
    PRINT BUDGET
 UBDSV1 SAVING "         STORAGE" ON UNIT  53 AT TIME STEP 89, STRESS PERIOD   3
 UBDSV2 SAVING "   CONSTANT HEAD" ON UNIT  53 AT TIME STEP 89, STRESS PERIOD   3
 UBDSV1 SAVING "FLOW RIGHT FACE " ON UNIT  53 AT TIME STEP 89, STRESS PERIOD   3
 UBDSV1 SAVING "FLOW FRONT FACE " ON UNIT  53 AT TIME STEP 89, STRESS PERIOD   3
1
              HEAD IN LAYER   1 AT END OF TIME STEP  89 IN STRESS PERIOD    3
  ---------------------------------------------------------------------------

            1           2           3           4           5           6           7           8           9          10
 ........................................................................................................................
   1    9.995       9.474       8.892       8.197       7.345       6.304       5.045       3.559       1.866      1.8826E-02
   2    9.995       9.467       8.876       8.171       7.313       6.277       5.027       3.549       1.862      1.8783E-02
   3    9.995       9.453       8.844       8.113       7.233       6.218       4.992       3.531       1.855      1.8707E-02
   4    9.994       9.437       8.801       8.018       7.058       6.119       4.945       3.510       1.846      1.8625E-02
   5    9.994       9.428       8.769       7.909       6.627       6.006       4.911       3.498       1.843      1.8585E-02
   6    9.994       9.437       8.802       8.020       7.059       6.120       4.946       3.511       1.847      1.8628E-02
   7    9.995       9.454       8.846       8.117       7.236       6.221       4.995       3.533       1.855      1.8715E-02
   8    9.995       9.469       8.881       8.178       7.321       6.284       5.033       3.553       1.864      1.8802E-02
   9    9.995       9.479       8.902       8.212       7.362       6.320       5.057       3.567       1.870      1.8864E-02
  10    9.995       9.484       8.912       8.226       7.380       6.335       5.068       3.573       1.873      1.8894E-02

 HEAD WILL BE SAVED ON UNIT   51 AT END OF TIME STEP   89, STRESS PERIOD    3

 DRAWDOWN WILL BE SAVED ON UNIT   52 AT END OF TIME STEP   89, STRESS PERIOD    3
1
  VOLUMETRIC BUDGET FOR ENTIRE MODEL AT END OF TIME STEP   89, STRESS PERIOD   3
  ------------------------------------------------------------------------------

     CUMULATIVE VOLUMES      L**3       RATES FOR THIS TIME STEP      L**3/T
     ------------------                 ------------------------

           IN:                                      IN:
           ---                                      ---
             STORAGE =      397475.4062               STORAGE =         717.1277
       CONSTANT HEAD =           0.0000         CONSTANT HEAD =           0.0000
               WELLS =           0.0000                 WELLS =           0.0000
     HEAD DEP BOUNDS =       21078.0195       HEAD DEP BOUNDS =         320.0201

            TOTAL IN =      418553.4375              TOTAL IN =        1037.1478

          OUT:                                     OUT:
          ----                                     ----
             STORAGE =           0.0000               STORAGE =           0.0000
       CONSTANT HEAD =           0.0000         CONSTANT HEAD =           0.0000
               WELLS =        8900.0000                 WELLS =         100.0000
     HEAD DEP BOUNDS =      409653.5312       HEAD DEP BOUNDS =         937.1385

           TOTAL OUT =      418553.5312             TOTAL OUT =        1037.1385

            IN - OUT =      -9.3750E-02              IN - OUT =       9.2773E-03

 PERCENT DISCREPANCY =          -0.00     PERCENT DISCREPANCY =           0.00






         TIME SUMMARY AT END OF TIME STEP   89 IN STRESS PERIOD    3
                    SECONDS     MINUTES      HOURS       DAYS        YEARS
                    -----------------------------------------------------------
   TIME STEP LENGTH  86400.      1440.0      24.000      1.0000     2.73785E-03
 STRESS PERIOD TIME 7.68960E+06 1.28160E+05  2136.0      89.000     0.24367    
         TOTAL TIME 1.64160E+07 2.73600E+05  4560.0      190.00     0.52019    
1
 
 SOLVING FOR HEAD 

 OUTPUT CONTROL FOR STRESS PERIOD    3   TIME STEP   90
    SAVE HEAD FOR ALL LAYERS
    SAVE DRAWDOWN FOR ALL LAYERS
    SAVE BUDGET
    PRINT HEAD FOR ALL LAYERS
    PRINT BUDGET
 UBDSV1 SAVING "         STORAGE" ON UNIT  53 AT TIME STEP 90, STRESS PERIOD   3
 UBDSV2 SAVING "   CONSTANT HEAD" ON UNIT  53 AT TIME STEP 90, STRESS PERIOD   3
 UBDSV1 SAVING "FLOW RIGHT FACE " ON UNIT  53 AT TIME STEP 90, STRESS PERIOD   3
 UBDSV1 SAVING "FLOW FRONT FACE " ON UNIT  53 AT TIME STEP 90, STRESS PERIOD   3
1
              HEAD IN LAYER   1 AT END OF TIME STEP  90 IN STRESS PERIOD    3
  ---------------------------------------------------------------------------

            1           2           3           4           5           6           7           8           9          10
 ........................................................................................................................
   1    9.995       9.470       8.885       8.187       7.334       6.292       5.033       3.550       1.861      1.8774E-02
   2    9.995       9.463       8.869       8.161       7.301       6.265       5.016       3.540       1.857      1.8730E-02
   3    9.995       9.449       8.837       8.103       7.220       6.205       4.981       3.522       1.849      1.8654E-02
   4    9.994       9.433       8.794       8.008       7.046       6.106       4.933       3.501       1.841      1.8571E-02
   5    9.994       9.424       8.762       7.899       6.614       5.993       4.899       3.489       1.837      1.8531E-02
   6    9.994       9.434       8.795       8.009       7.047       6.108       4.934       3.502       1.842      1.8575E-02
   7    9.995       9.451       8.839       8.106       7.224       6.208       4.983       3.524       1.850      1.8663E-02
   8    9.995       9.466       8.874       8.168       7.309       6.272       5.022       3.544       1.859      1.8750E-02
   9    9.995       9.476       8.896       8.202       7.351       6.308       5.046       3.558       1.865      1.8813E-02
  10    9.995       9.480       8.905       8.217       7.368       6.323       5.057       3.564       1.868      1.8844E-02

 HEAD WILL BE SAVED ON UNIT   51 AT END OF TIME STEP   90, STRESS PERIOD    3

 DRAWDOWN WILL BE SAVED ON UNIT   52 AT END OF TIME STEP   90, STRESS PERIOD    3
1
  VOLUMETRIC BUDGET FOR ENTIRE MODEL AT END OF TIME STEP   90, STRESS PERIOD   3
  ------------------------------------------------------------------------------

     CUMULATIVE VOLUMES      L**3       RATES FOR THIS TIME STEP      L**3/T
     ------------------                 ------------------------

           IN:                                      IN:
           ---                                      ---
             STORAGE =      398187.6875               STORAGE =         712.2820
       CONSTANT HEAD =           0.0000         CONSTANT HEAD =           0.0000
               WELLS =           0.0000                 WELLS =           0.0000
     HEAD DEP BOUNDS =       21400.2461       HEAD DEP BOUNDS =         322.2262

            TOTAL IN =      419587.9375              TOTAL IN =        1034.5082

          OUT:                                     OUT:
          ----                                     ----
             STORAGE =           0.0000               STORAGE =           0.0000
       CONSTANT HEAD =           0.0000         CONSTANT HEAD =           0.0000
               WELLS =        9000.0000                 WELLS =         100.0000
     HEAD DEP BOUNDS =      410588.0625       HEAD DEP BOUNDS =         934.5214

           TOTAL OUT =      419588.0625             TOTAL OUT =        1034.5214

            IN - OUT =          -0.1250              IN - OUT =      -1.3184E-02

 PERCENT DISCREPANCY =          -0.00     PERCENT DISCREPANCY =          -0.00






         TIME SUMMARY AT END OF TIME STEP   90 IN STRESS PERIOD    3
                    SECONDS     MINUTES      HOURS       DAYS        YEARS
                    -----------------------------------------------------------
   TIME STEP LENGTH  86400.      1440.0      24.000      1.0000     2.73785E-03
 STRESS PERIOD TIME 7.77600E+06 1.29600E+05  2160.0      90.000     0.24641    
         TOTAL TIME 1.65024E+07 2.75040E+05  4584.0      191.00     0.52293    
1
 
 SOLVING FOR HEAD 

 OUTPUT CONTROL FOR STRESS PERIOD    3   TIME STEP   91
    SAVE HEAD FOR ALL LAYERS
    SAVE DRAWDOWN FOR ALL LAYERS
    SAVE BUDGET
    PRINT HEAD FOR ALL LAYERS
    PRINT BUDGET
 UBDSV1 SAVING "         STORAGE" ON UNIT  53 AT TIME STEP 91, STRESS PERIOD   3
 UBDSV2 SAVING "   CONSTANT HEAD" ON UNIT  53 AT TIME STEP 91, STRESS PERIOD   3
 UBDSV1 SAVING "FLOW RIGHT FACE " ON UNIT  53 AT TIME STEP 91, STRESS PERIOD   3
 UBDSV1 SAVING "FLOW FRONT FACE " ON UNIT  53 AT TIME STEP 91, STRESS PERIOD   3
1
              HEAD IN LAYER   1 AT END OF TIME STEP  91 IN STRESS PERIOD    3
  ---------------------------------------------------------------------------

            1           2           3           4           5           6           7           8           9          10
 ........................................................................................................................
   1    9.995       9.466       8.878       8.177       7.322       6.279       5.022       3.541       1.856      1.8722E-02
   2    9.995       9.459       8.862       8.151       7.289       6.252       5.004       3.531       1.852      1.8679E-02
   3    9.995       9.446       8.830       8.093       7.208       6.192       4.969       3.513       1.844      1.8601E-02
   4    9.994       9.429       8.786       7.998       7.033       6.094       4.922       3.492       1.836      1.8518E-02
   5    9.994       9.420       8.754       7.888       6.602       5.980       4.887       3.480       1.832      1.8478E-02
   6    9.994       9.430       8.787       7.999       7.035       6.095       4.923       3.492       1.836      1.8522E-02
   7    9.995       9.447       8.832       8.096       7.212       6.196       4.972       3.515       1.845      1.8611E-02
   8    9.995       9.462       8.867       8.158       7.297       6.260       5.010       3.535       1.854      1.8699E-02
   9    9.995       9.472       8.889       8.192       7.339       6.296       5.034       3.549       1.860      1.8762E-02
  10    9.995       9.477       8.899       8.207       7.357       6.311       5.046       3.556       1.863      1.8794E-02

 HEAD WILL BE SAVED ON UNIT   51 AT END OF TIME STEP   91, STRESS PERIOD    3

 DRAWDOWN WILL BE SAVED ON UNIT   52 AT END OF TIME STEP   91, STRESS PERIOD    3
1
  VOLUMETRIC BUDGET FOR ENTIRE MODEL AT END OF TIME STEP   91, STRESS PERIOD   3
  ------------------------------------------------------------------------------

     CUMULATIVE VOLUMES      L**3       RATES FOR THIS TIME STEP      L**3/T
     ------------------                 ------------------------

           IN:                                      IN:
           ---                                      ---
             STORAGE =      398895.1875               STORAGE =         707.4956
       CONSTANT HEAD =           0.0000         CONSTANT HEAD =           0.0000
               WELLS =           0.0000                 WELLS =           0.0000
     HEAD DEP BOUNDS =       21724.6875       HEAD DEP BOUNDS =         324.4415

            TOTAL IN =      420619.8750              TOTAL IN =        1031.9370

          OUT:                                     OUT:
          ----                                     ----
             STORAGE =           0.0000               STORAGE =           0.0000
       CONSTANT HEAD =           0.0000         CONSTANT HEAD =           0.0000
               WELLS =        9100.0000                 WELLS =         100.0000
     HEAD DEP BOUNDS =      411520.0000       HEAD DEP BOUNDS =         931.9312

           TOTAL OUT =      420620.0000             TOTAL OUT =        1031.9312

            IN - OUT =          -0.1250              IN - OUT =       5.8594E-03

 PERCENT DISCREPANCY =          -0.00     PERCENT DISCREPANCY =           0.00






         TIME SUMMARY AT END OF TIME STEP   91 IN STRESS PERIOD    3
                    SECONDS     MINUTES      HOURS       DAYS        YEARS
                    -----------------------------------------------------------
   TIME STEP LENGTH  86400.      1440.0      24.000      1.0000     2.73785E-03
 STRESS PERIOD TIME 7.86240E+06 1.31040E+05  2184.0      91.000     0.24914    
         TOTAL TIME 1.65888E+07 2.76480E+05  4608.0      192.00     0.52567    
1
 
 SOLVING FOR HEAD 

 OUTPUT CONTROL FOR STRESS PERIOD    3   TIME STEP   92
    SAVE HEAD FOR ALL LAYERS
    SAVE DRAWDOWN FOR ALL LAYERS
    SAVE BUDGET
    PRINT HEAD FOR ALL LAYERS
    PRINT BUDGET
 UBDSV1 SAVING "         STORAGE" ON UNIT  53 AT TIME STEP 92, STRESS PERIOD   3
 UBDSV2 SAVING "   CONSTANT HEAD" ON UNIT  53 AT TIME STEP 92, STRESS PERIOD   3
 UBDSV1 SAVING "FLOW RIGHT FACE " ON UNIT  53 AT TIME STEP 92, STRESS PERIOD   3
 UBDSV1 SAVING "FLOW FRONT FACE " ON UNIT  53 AT TIME STEP 92, STRESS PERIOD   3
1
              HEAD IN LAYER   1 AT END OF TIME STEP  92 IN STRESS PERIOD    3
  ---------------------------------------------------------------------------

            1           2           3           4           5           6           7           8           9          10
 ........................................................................................................................
   1    9.995       9.463       8.870       8.167       7.310       6.267       5.011       3.532       1.851      1.8671E-02
   2    9.995       9.455       8.854       8.141       7.277       6.240       4.993       3.522       1.847      1.8627E-02
   3    9.995       9.442       8.822       8.083       7.197       6.180       4.957       3.504       1.839      1.8549E-02
   4    9.994       9.425       8.779       7.988       7.021       6.081       4.910       3.483       1.831      1.8466E-02
   5    9.994       9.416       8.747       7.878       6.590       5.967       4.875       3.471       1.827      1.8426E-02
   6    9.994       9.426       8.780       7.989       7.023       6.082       4.911       3.483       1.831      1.8470E-02
   7    9.995       9.443       8.825       8.086       7.200       6.183       4.960       3.506       1.840      1.8559E-02
   8    9.995       9.458       8.860       8.148       7.286       6.248       4.999       3.526       1.849      1.8648E-02
   9    9.995       9.468       8.882       8.183       7.328       6.284       5.023       3.540       1.855      1.8712E-02
  10    9.995       9.473       8.892       8.198       7.346       6.299       5.035       3.547       1.858      1.8744E-02

 HEAD WILL BE SAVED ON UNIT   51 AT END OF TIME STEP   92, STRESS PERIOD    3

 DRAWDOWN WILL BE SAVED ON UNIT   52 AT END OF TIME STEP   92, STRESS PERIOD    3
1
  VOLUMETRIC BUDGET FOR ENTIRE MODEL AT END OF TIME STEP   92, STRESS PERIOD   3
  ------------------------------------------------------------------------------

     CUMULATIVE VOLUMES      L**3       RATES FOR THIS TIME STEP      L**3/T
     ------------------                 ------------------------

           IN:                                      IN:
           ---                                      ---
             STORAGE =      399597.9062               STORAGE =         702.7335
       CONSTANT HEAD =           0.0000         CONSTANT HEAD =           0.0000
               WELLS =           0.0000                 WELLS =           0.0000
     HEAD DEP BOUNDS =       22051.3203       HEAD DEP BOUNDS =         326.6329

            TOTAL IN =      421649.2188              TOTAL IN =        1029.3665

          OUT:                                     OUT:
          ----                                     ----
             STORAGE =           0.0000               STORAGE =           0.0000
       CONSTANT HEAD =           0.0000         CONSTANT HEAD =           0.0000
               WELLS =        9200.0000                 WELLS =         100.0000
     HEAD DEP BOUNDS =      412449.3438       HEAD DEP BOUNDS =         929.3580

           TOTAL OUT =      421649.3438             TOTAL OUT =        1029.3580

            IN - OUT =          -0.1250              IN - OUT =       8.4229E-03

 PERCENT DISCREPANCY =          -0.00     PERCENT DISCREPANCY =           0.00






         TIME SUMMARY AT END OF TIME STEP   92 IN STRESS PERIOD    3
                    SECONDS     MINUTES      HOURS       DAYS        YEARS
                    -----------------------------------------------------------
   TIME STEP LENGTH  86400.      1440.0      24.000      1.0000     2.73785E-03
 STRESS PERIOD TIME 7.94880E+06 1.32480E+05  2208.0      92.000     0.25188    
         TOTAL TIME 1.66752E+07 2.77920E+05  4632.0      193.00     0.52841    
1
 
 SOLVING FOR HEAD 

 OUTPUT CONTROL FOR STRESS PERIOD    3   TIME STEP   93
    SAVE HEAD FOR ALL LAYERS
    SAVE DRAWDOWN FOR ALL LAYERS
    SAVE BUDGET
    PRINT HEAD FOR ALL LAYERS
    PRINT BUDGET
 UBDSV1 SAVING "         STORAGE" ON UNIT  53 AT TIME STEP 93, STRESS PERIOD   3
 UBDSV2 SAVING "   CONSTANT HEAD" ON UNIT  53 AT TIME STEP 93, STRESS PERIOD   3
 UBDSV1 SAVING "FLOW RIGHT FACE " ON UNIT  53 AT TIME STEP 93, STRESS PERIOD   3
 UBDSV1 SAVING "FLOW FRONT FACE " ON UNIT  53 AT TIME STEP 93, STRESS PERIOD   3
1
              HEAD IN LAYER   1 AT END OF TIME STEP  93 IN STRESS PERIOD    3
  ---------------------------------------------------------------------------

            1           2           3           4           5           6           7           8           9          10
 ........................................................................................................................
   1    9.995       9.459       8.863       8.157       7.299       6.255       4.999       3.523       1.846      1.8620E-02
   2    9.995       9.452       8.847       8.131       7.265       6.228       4.982       3.513       1.842      1.8576E-02
   3    9.994       9.438       8.815       8.073       7.185       6.168       4.946       3.495       1.834      1.8498E-02
   4    9.994       9.422       8.772       7.978       7.009       6.069       4.898       3.474       1.826      1.8414E-02
   5    9.994       9.412       8.740       7.868       6.578       5.955       4.864       3.462       1.822      1.8374E-02
   6    9.994       9.422       8.773       7.979       7.011       6.070       4.899       3.474       1.826      1.8418E-02
   7    9.994       9.439       8.818       8.077       7.189       6.171       4.949       3.497       1.835      1.8508E-02
   8    9.995       9.455       8.853       8.139       7.274       6.236       4.988       3.518       1.844      1.8597E-02
   9    9.995       9.465       8.875       8.173       7.317       6.272       5.012       3.532       1.850      1.8662E-02
  10    9.995       9.470       8.885       8.188       7.335       6.288       5.024       3.539       1.853      1.8694E-02

 HEAD WILL BE SAVED ON UNIT   51 AT END OF TIME STEP   93, STRESS PERIOD    3

 DRAWDOWN WILL BE SAVED ON UNIT   52 AT END OF TIME STEP   93, STRESS PERIOD    3
1
  VOLUMETRIC BUDGET FOR ENTIRE MODEL AT END OF TIME STEP   93, STRESS PERIOD   3
  ------------------------------------------------------------------------------

     CUMULATIVE VOLUMES      L**3       RATES FOR THIS TIME STEP      L**3/T
     ------------------                 ------------------------

           IN:                                      IN:
           ---                                      ---
             STORAGE =      400295.9062               STORAGE =         698.0015
       CONSTANT HEAD =           0.0000         CONSTANT HEAD =           0.0000
               WELLS =           0.0000                 WELLS =           0.0000
     HEAD DEP BOUNDS =       22380.1348       HEAD DEP BOUNDS =         328.8139

            TOTAL IN =      422676.0312              TOTAL IN =        1026.8154

          OUT:                                     OUT:
          ----                                     ----
             STORAGE =           0.0000               STORAGE =           0.0000
       CONSTANT HEAD =           0.0000         CONSTANT HEAD =           0.0000
               WELLS =        9300.0000                 WELLS =         100.0000
     HEAD DEP BOUNDS =      413376.1562       HEAD DEP BOUNDS =         926.8035

           TOTAL OUT =      422676.1562             TOTAL OUT =        1026.8035

            IN - OUT =          -0.1250              IN - OUT =       1.1963E-02

 PERCENT DISCREPANCY =          -0.00     PERCENT DISCREPANCY =           0.00






         TIME SUMMARY AT END OF TIME STEP   93 IN STRESS PERIOD    3
                    SECONDS     MINUTES      HOURS       DAYS        YEARS
                    -----------------------------------------------------------
   TIME STEP LENGTH  86400.      1440.0      24.000      1.0000     2.73785E-03
 STRESS PERIOD TIME 8.03520E+06 1.33920E+05  2232.0      93.000     0.25462    
         TOTAL TIME 1.67616E+07 2.79360E+05  4656.0      194.00     0.53114    
1
 
 SOLVING FOR HEAD 

 OUTPUT CONTROL FOR STRESS PERIOD    3   TIME STEP   94
    SAVE HEAD FOR ALL LAYERS
    SAVE DRAWDOWN FOR ALL LAYERS
    SAVE BUDGET
    PRINT HEAD FOR ALL LAYERS
    PRINT BUDGET
 UBDSV1 SAVING "         STORAGE" ON UNIT  53 AT TIME STEP 94, STRESS PERIOD   3
 UBDSV2 SAVING "   CONSTANT HEAD" ON UNIT  53 AT TIME STEP 94, STRESS PERIOD   3
 UBDSV1 SAVING "FLOW RIGHT FACE " ON UNIT  53 AT TIME STEP 94, STRESS PERIOD   3
 UBDSV1 SAVING "FLOW FRONT FACE " ON UNIT  53 AT TIME STEP 94, STRESS PERIOD   3
1
              HEAD IN LAYER   1 AT END OF TIME STEP  94 IN STRESS PERIOD    3
  ---------------------------------------------------------------------------

            1           2           3           4           5           6           7           8           9          10
 ........................................................................................................................
   1    9.995       9.455       8.856       8.148       7.287       6.243       4.988       3.515       1.841      1.8570E-02
   2    9.995       9.448       8.840       8.121       7.254       6.216       4.970       3.505       1.837      1.8525E-02
   3    9.994       9.434       8.808       8.063       7.173       6.155       4.935       3.486       1.829      1.8446E-02
   4    9.994       9.418       8.764       7.967       6.997       6.056       4.887       3.465       1.821      1.8362E-02
   5    9.994       9.408       8.733       7.858       6.566       5.942       4.852       3.453       1.817      1.8322E-02
   6    9.994       9.418       8.765       7.969       6.999       6.057       4.888       3.465       1.821      1.8366E-02
   7    9.994       9.436       8.811       8.067       7.177       6.159       4.938       3.488       1.830      1.8457E-02
   8    9.995       9.451       8.846       8.129       7.263       6.224       4.977       3.509       1.839      1.8547E-02
   9    9.995       9.461       8.868       8.164       7.305       6.260       5.001       3.523       1.845      1.8612E-02
  10    9.995       9.466       8.878       8.179       7.323       6.276       5.013       3.530       1.849      1.8645E-02

 HEAD WILL BE SAVED ON UNIT   51 AT END OF TIME STEP   94, STRESS PERIOD    3

 DRAWDOWN WILL BE SAVED ON UNIT   52 AT END OF TIME STEP   94, STRESS PERIOD    3
1
  VOLUMETRIC BUDGET FOR ENTIRE MODEL AT END OF TIME STEP   94, STRESS PERIOD   3
  ------------------------------------------------------------------------------

     CUMULATIVE VOLUMES      L**3       RATES FOR THIS TIME STEP      L**3/T
     ------------------                 ------------------------

           IN:                                      IN:
           ---                                      ---
             STORAGE =      400989.1875               STORAGE =         693.2914
       CONSTANT HEAD =           0.0000         CONSTANT HEAD =           0.0000
               WELLS =           0.0000                 WELLS =           0.0000
     HEAD DEP BOUNDS =       22711.0996       HEAD DEP BOUNDS =         330.9643

            TOTAL IN =      423700.2812              TOTAL IN =        1024.2557

          OUT:                                     OUT:
          ----                                     ----
             STORAGE =           0.0000               STORAGE =           0.0000
       CONSTANT HEAD =           0.0000         CONSTANT HEAD =           0.0000
               WELLS =        9400.0000                 WELLS =         100.0000
     HEAD DEP BOUNDS =      414300.4375       HEAD DEP BOUNDS =         924.2675

           TOTAL OUT =      423700.4375             TOTAL OUT =        1024.2675

            IN - OUT =          -0.1562              IN - OUT =      -1.1719E-02

 PERCENT DISCREPANCY =          -0.00     PERCENT DISCREPANCY =          -0.00






         TIME SUMMARY AT END OF TIME STEP   94 IN STRESS PERIOD    3
                    SECONDS     MINUTES      HOURS       DAYS        YEARS
                    -----------------------------------------------------------
   TIME STEP LENGTH  86400.      1440.0      24.000      1.0000     2.73785E-03
 STRESS PERIOD TIME 8.12160E+06 1.35360E+05  2256.0      94.000     0.25736    
         TOTAL TIME 1.68480E+07 2.80800E+05  4680.0      195.00     0.53388    
1
 
 SOLVING FOR HEAD 

 OUTPUT CONTROL FOR STRESS PERIOD    3   TIME STEP   95
    SAVE HEAD FOR ALL LAYERS
    SAVE DRAWDOWN FOR ALL LAYERS
    SAVE BUDGET
    PRINT HEAD FOR ALL LAYERS
    PRINT BUDGET
 UBDSV1 SAVING "         STORAGE" ON UNIT  53 AT TIME STEP 95, STRESS PERIOD   3
 UBDSV2 SAVING "   CONSTANT HEAD" ON UNIT  53 AT TIME STEP 95, STRESS PERIOD   3
 UBDSV1 SAVING "FLOW RIGHT FACE " ON UNIT  53 AT TIME STEP 95, STRESS PERIOD   3
 UBDSV1 SAVING "FLOW FRONT FACE " ON UNIT  53 AT TIME STEP 95, STRESS PERIOD   3
1
              HEAD IN LAYER   1 AT END OF TIME STEP  95 IN STRESS PERIOD    3
  ---------------------------------------------------------------------------

            1           2           3           4           5           6           7           8           9          10
 ........................................................................................................................
   1    9.995       9.452       8.849       8.138       7.276       6.231       4.977       3.506       1.836      1.8520E-02
   2    9.995       9.444       8.833       8.111       7.242       6.203       4.959       3.496       1.832      1.8475E-02
   3    9.994       9.431       8.801       8.053       7.161       6.143       4.923       3.477       1.824      1.8396E-02
   4    9.994       9.414       8.757       7.958       6.985       6.044       4.876       3.456       1.816      1.8311E-02
   5    9.994       9.405       8.725       7.848       6.554       5.930       4.841       3.444       1.812      1.8270E-02
   6    9.994       9.415       8.758       7.959       6.987       6.045       4.877       3.457       1.816      1.8315E-02
   7    9.994       9.432       8.804       8.057       7.165       6.147       4.926       3.479       1.825      1.8406E-02
   8    9.995       9.447       8.839       8.119       7.251       6.212       4.966       3.500       1.834      1.8497E-02
   9    9.995       9.458       8.861       8.154       7.294       6.248       4.991       3.515       1.841      1.8563E-02
  10    9.995       9.463       8.872       8.170       7.312       6.264       5.002       3.522       1.844      1.8597E-02

 HEAD WILL BE SAVED ON UNIT   51 AT END OF TIME STEP   95, STRESS PERIOD    3

 DRAWDOWN WILL BE SAVED ON UNIT   52 AT END OF TIME STEP   95, STRESS PERIOD    3
1
  VOLUMETRIC BUDGET FOR ENTIRE MODEL AT END OF TIME STEP   95, STRESS PERIOD   3
  ------------------------------------------------------------------------------

     CUMULATIVE VOLUMES      L**3       RATES FOR THIS TIME STEP      L**3/T
     ------------------                 ------------------------

           IN:                                      IN:
           ---                                      ---
             STORAGE =      401677.8125               STORAGE =         688.6293
       CONSTANT HEAD =           0.0000         CONSTANT HEAD =           0.0000
               WELLS =           0.0000                 WELLS =           0.0000
     HEAD DEP BOUNDS =       23044.2305       HEAD DEP BOUNDS =         333.1306

            TOTAL IN =      424722.0312              TOTAL IN =        1021.7599

          OUT:                                     OUT:
          ----                                     ----
             STORAGE =           0.0000               STORAGE =           0.0000
       CONSTANT HEAD =           0.0000         CONSTANT HEAD =           0.0000
               WELLS =        9500.0000                 WELLS =         100.0000
     HEAD DEP BOUNDS =      415222.1875       HEAD DEP BOUNDS =         921.7584

           TOTAL OUT =      424722.1875             TOTAL OUT =        1021.7584

            IN - OUT =          -0.1562              IN - OUT =       1.5259E-03

 PERCENT DISCREPANCY =          -0.00     PERCENT DISCREPANCY =           0.00






         TIME SUMMARY AT END OF TIME STEP   95 IN STRESS PERIOD    3
                    SECONDS     MINUTES      HOURS       DAYS        YEARS
                    -----------------------------------------------------------
   TIME STEP LENGTH  86400.      1440.0      24.000      1.0000     2.73785E-03
 STRESS PERIOD TIME 8.20800E+06 1.36800E+05  2280.0      95.000     0.26010    
         TOTAL TIME 1.69344E+07 2.82240E+05  4704.0      196.00     0.53662    
1
 
 SOLVING FOR HEAD 

 OUTPUT CONTROL FOR STRESS PERIOD    3   TIME STEP   96
    SAVE HEAD FOR ALL LAYERS
    SAVE DRAWDOWN FOR ALL LAYERS
    SAVE BUDGET
    PRINT HEAD FOR ALL LAYERS
    PRINT BUDGET
 UBDSV1 SAVING "         STORAGE" ON UNIT  53 AT TIME STEP 96, STRESS PERIOD   3
 UBDSV2 SAVING "   CONSTANT HEAD" ON UNIT  53 AT TIME STEP 96, STRESS PERIOD   3
 UBDSV1 SAVING "FLOW RIGHT FACE " ON UNIT  53 AT TIME STEP 96, STRESS PERIOD   3
 UBDSV1 SAVING "FLOW FRONT FACE " ON UNIT  53 AT TIME STEP 96, STRESS PERIOD   3
1
              HEAD IN LAYER   1 AT END OF TIME STEP  96 IN STRESS PERIOD    3
  ---------------------------------------------------------------------------

            1           2           3           4           5           6           7           8           9          10
 ........................................................................................................................
   1    9.995       9.448       8.843       8.128       7.264       6.219       4.966       3.497       1.832      1.8470E-02
   2    9.994       9.441       8.826       8.102       7.231       6.191       4.948       3.487       1.827      1.8425E-02
   3    9.994       9.427       8.794       8.043       7.150       6.131       4.912       3.469       1.819      1.8346E-02
   4    9.994       9.410       8.750       7.948       6.974       6.031       4.864       3.447       1.811      1.8260E-02
   5    9.994       9.401       8.718       7.838       6.542       5.918       4.829       3.435       1.807      1.8220E-02
   6    9.994       9.411       8.751       7.949       6.975       6.033       4.865       3.448       1.811      1.8265E-02
   7    9.994       9.428       8.797       8.047       7.154       6.135       4.915       3.471       1.820      1.8356E-02
   8    9.995       9.444       8.832       8.110       7.240       6.200       4.955       3.492       1.829      1.8448E-02
   9    9.995       9.454       8.855       8.145       7.283       6.237       4.980       3.506       1.836      1.8515E-02
  10    9.995       9.459       8.865       8.160       7.301       6.253       4.992       3.513       1.839      1.8548E-02

 HEAD WILL BE SAVED ON UNIT   51 AT END OF TIME STEP   96, STRESS PERIOD    3

 DRAWDOWN WILL BE SAVED ON UNIT   52 AT END OF TIME STEP   96, STRESS PERIOD    3
1
  VOLUMETRIC BUDGET FOR ENTIRE MODEL AT END OF TIME STEP   96, STRESS PERIOD   3
  ------------------------------------------------------------------------------

     CUMULATIVE VOLUMES      L**3       RATES FOR THIS TIME STEP      L**3/T
     ------------------                 ------------------------

           IN:                                      IN:
           ---                                      ---
             STORAGE =      402361.8125               STORAGE =         683.9967
       CONSTANT HEAD =           0.0000         CONSTANT HEAD =           0.0000
               WELLS =           0.0000                 WELLS =           0.0000
     HEAD DEP BOUNDS =       23379.5039       HEAD DEP BOUNDS =         335.2733

            TOTAL IN =      425741.3125              TOTAL IN =        1019.2700

          OUT:                                     OUT:
          ----                                     ----
             STORAGE =           0.0000               STORAGE =           0.0000
       CONSTANT HEAD =           0.0000         CONSTANT HEAD =           0.0000
               WELLS =        9600.0000                 WELLS =         100.0000
     HEAD DEP BOUNDS =      416141.4688       HEAD DEP BOUNDS =         919.2660

           TOTAL OUT =      425741.4688             TOTAL OUT =        1019.2660

            IN - OUT =          -0.1562              IN - OUT =       3.9673E-03

 PERCENT DISCREPANCY =          -0.00     PERCENT DISCREPANCY =           0.00






         TIME SUMMARY AT END OF TIME STEP   96 IN STRESS PERIOD    3
                    SECONDS     MINUTES      HOURS       DAYS        YEARS
                    -----------------------------------------------------------
   TIME STEP LENGTH  86400.      1440.0      24.000      1.0000     2.73785E-03
 STRESS PERIOD TIME 8.29440E+06 1.38240E+05  2304.0      96.000     0.26283    
         TOTAL TIME 1.70208E+07 2.83680E+05  4728.0      197.00     0.53936    
1
 
 SOLVING FOR HEAD 

 OUTPUT CONTROL FOR STRESS PERIOD    3   TIME STEP   97
    SAVE HEAD FOR ALL LAYERS
    SAVE DRAWDOWN FOR ALL LAYERS
    SAVE BUDGET
    PRINT HEAD FOR ALL LAYERS
    PRINT BUDGET
 UBDSV1 SAVING "         STORAGE" ON UNIT  53 AT TIME STEP 97, STRESS PERIOD   3
 UBDSV2 SAVING "   CONSTANT HEAD" ON UNIT  53 AT TIME STEP 97, STRESS PERIOD   3
 UBDSV1 SAVING "FLOW RIGHT FACE " ON UNIT  53 AT TIME STEP 97, STRESS PERIOD   3
 UBDSV1 SAVING "FLOW FRONT FACE " ON UNIT  53 AT TIME STEP 97, STRESS PERIOD   3
1
              HEAD IN LAYER   1 AT END OF TIME STEP  97 IN STRESS PERIOD    3
  ---------------------------------------------------------------------------

            1           2           3           4           5           6           7           8           9          10
 ........................................................................................................................
   1    9.995       9.444       8.836       8.119       7.253       6.207       4.955       3.489       1.827      1.8421E-02
   2    9.994       9.437       8.819       8.092       7.219       6.180       4.937       3.479       1.822      1.8376E-02
   3    9.994       9.423       8.787       8.034       7.138       6.119       4.901       3.460       1.814      1.8296E-02
   4    9.994       9.407       8.743       7.938       6.962       6.019       4.853       3.438       1.806      1.8210E-02
   5    9.994       9.397       8.711       7.828       6.530       5.905       4.818       3.426       1.802      1.8169E-02
   6    9.994       9.407       8.744       7.939       6.964       6.021       4.854       3.439       1.807      1.8214E-02
   7    9.994       9.425       8.790       8.038       7.142       6.123       4.904       3.462       1.816      1.8307E-02
   8    9.994       9.440       8.825       8.100       7.229       6.188       4.944       3.483       1.825      1.8399E-02
   9    9.995       9.451       8.848       8.136       7.272       6.225       4.969       3.498       1.831      1.8466E-02
  10    9.995       9.456       8.858       8.151       7.291       6.241       4.981       3.505       1.835      1.8500E-02

 HEAD WILL BE SAVED ON UNIT   51 AT END OF TIME STEP   97, STRESS PERIOD    3

 DRAWDOWN WILL BE SAVED ON UNIT   52 AT END OF TIME STEP   97, STRESS PERIOD    3
1
  VOLUMETRIC BUDGET FOR ENTIRE MODEL AT END OF TIME STEP   97, STRESS PERIOD   3
  ------------------------------------------------------------------------------

     CUMULATIVE VOLUMES      L**3       RATES FOR THIS TIME STEP      L**3/T
     ------------------                 ------------------------

           IN:                                      IN:
           ---                                      ---
             STORAGE =      403041.2188               STORAGE =         679.3969
       CONSTANT HEAD =           0.0000         CONSTANT HEAD =           0.0000
               WELLS =           0.0000                 WELLS =           0.0000
     HEAD DEP BOUNDS =       23716.9102       HEAD DEP BOUNDS =         337.4053

            TOTAL IN =      426758.1250              TOTAL IN =        1016.8021

          OUT:                                     OUT:
          ----                                     ----
             STORAGE =           0.0000               STORAGE =           0.0000
       CONSTANT HEAD =           0.0000         CONSTANT HEAD =           0.0000
               WELLS =        9700.0000                 WELLS =         100.0000
     HEAD DEP BOUNDS =      417058.2500       HEAD DEP BOUNDS =         916.7914

           TOTAL OUT =      426758.2500             TOTAL OUT =        1016.7914

            IN - OUT =          -0.1250              IN - OUT =       1.0742E-02

 PERCENT DISCREPANCY =          -0.00     PERCENT DISCREPANCY =           0.00






         TIME SUMMARY AT END OF TIME STEP   97 IN STRESS PERIOD    3
                    SECONDS     MINUTES      HOURS       DAYS        YEARS
                    -----------------------------------------------------------
   TIME STEP LENGTH  86400.      1440.0      24.000      1.0000     2.73785E-03
 STRESS PERIOD TIME 8.38080E+06 1.39680E+05  2328.0      97.000     0.26557    
         TOTAL TIME 1.71072E+07 2.85120E+05  4752.0      198.00     0.54209    
1
 
 SOLVING FOR HEAD 

 OUTPUT CONTROL FOR STRESS PERIOD    3   TIME STEP   98
    SAVE HEAD FOR ALL LAYERS
    SAVE DRAWDOWN FOR ALL LAYERS
    SAVE BUDGET
    PRINT HEAD FOR ALL LAYERS
    PRINT BUDGET
 UBDSV1 SAVING "         STORAGE" ON UNIT  53 AT TIME STEP 98, STRESS PERIOD   3
 UBDSV2 SAVING "   CONSTANT HEAD" ON UNIT  53 AT TIME STEP 98, STRESS PERIOD   3
 UBDSV1 SAVING "FLOW RIGHT FACE " ON UNIT  53 AT TIME STEP 98, STRESS PERIOD   3
 UBDSV1 SAVING "FLOW FRONT FACE " ON UNIT  53 AT TIME STEP 98, STRESS PERIOD   3
1
              HEAD IN LAYER   1 AT END OF TIME STEP  98 IN STRESS PERIOD    3
  ---------------------------------------------------------------------------

            1           2           3           4           5           6           7           8           9          10
 ........................................................................................................................
   1    9.994       9.441       8.829       8.109       7.242       6.196       4.944       3.480       1.822      1.8372E-02
   2    9.994       9.433       8.812       8.082       7.208       6.168       4.926       3.470       1.818      1.8326E-02
   3    9.994       9.420       8.780       8.024       7.127       6.107       4.890       3.451       1.810      1.8246E-02
   4    9.994       9.403       8.736       7.928       6.950       6.007       4.842       3.430       1.801      1.8160E-02
   5    9.994       9.393       8.704       7.818       6.518       5.893       4.807       3.417       1.797      1.8119E-02
   6    9.994       9.404       8.737       7.929       6.952       6.009       4.843       3.430       1.802      1.8164E-02
   7    9.994       9.421       8.783       8.028       7.131       6.111       4.893       3.454       1.811      1.8257E-02
   8    9.994       9.437       8.819       8.091       7.218       6.177       4.933       3.475       1.820      1.8351E-02
   9    9.995       9.447       8.841       8.126       7.261       6.214       4.959       3.490       1.827      1.8418E-02
  10    9.995       9.452       8.852       8.142       7.280       6.230       4.970       3.497       1.830      1.8453E-02

 HEAD WILL BE SAVED ON UNIT   51 AT END OF TIME STEP   98, STRESS PERIOD    3

 DRAWDOWN WILL BE SAVED ON UNIT   52 AT END OF TIME STEP   98, STRESS PERIOD    3
1
  VOLUMETRIC BUDGET FOR ENTIRE MODEL AT END OF TIME STEP   98, STRESS PERIOD   3
  ------------------------------------------------------------------------------

     CUMULATIVE VOLUMES      L**3       RATES FOR THIS TIME STEP      L**3/T
     ------------------                 ------------------------

           IN:                                      IN:
           ---                                      ---
             STORAGE =      403716.0312               STORAGE =         674.8157
       CONSTANT HEAD =           0.0000         CONSTANT HEAD =           0.0000
               WELLS =           0.0000                 WELLS =           0.0000
     HEAD DEP BOUNDS =       24056.4375       HEAD DEP BOUNDS =         339.5269

            TOTAL IN =      427772.4688              TOTAL IN =        1014.3426

          OUT:                                     OUT:
          ----                                     ----
             STORAGE =           0.0000               STORAGE =           0.0000
       CONSTANT HEAD =           0.0000         CONSTANT HEAD =           0.0000
               WELLS =        9800.0000                 WELLS =         100.0000
     HEAD DEP BOUNDS =      417972.5938       HEAD DEP BOUNDS =         914.3346

           TOTAL OUT =      427772.5938             TOTAL OUT =        1014.3346

            IN - OUT =          -0.1250              IN - OUT =       7.9956E-03

 PERCENT DISCREPANCY =          -0.00     PERCENT DISCREPANCY =           0.00






         TIME SUMMARY AT END OF TIME STEP   98 IN STRESS PERIOD    3
                    SECONDS     MINUTES      HOURS       DAYS        YEARS
                    -----------------------------------------------------------
   TIME STEP LENGTH  86400.      1440.0      24.000      1.0000     2.73785E-03
 STRESS PERIOD TIME 8.46720E+06 1.41120E+05  2352.0      98.000     0.26831    
         TOTAL TIME 1.71936E+07 2.86560E+05  4776.0      199.00     0.54483    
1
 
 SOLVING FOR HEAD 

 OUTPUT CONTROL FOR STRESS PERIOD    3   TIME STEP   99
    SAVE HEAD FOR ALL LAYERS
    SAVE DRAWDOWN FOR ALL LAYERS
    SAVE BUDGET
    PRINT HEAD FOR ALL LAYERS
    PRINT BUDGET
 UBDSV1 SAVING "         STORAGE" ON UNIT  53 AT TIME STEP 99, STRESS PERIOD   3
 UBDSV2 SAVING "   CONSTANT HEAD" ON UNIT  53 AT TIME STEP 99, STRESS PERIOD   3
 UBDSV1 SAVING "FLOW RIGHT FACE " ON UNIT  53 AT TIME STEP 99, STRESS PERIOD   3
 UBDSV1 SAVING "FLOW FRONT FACE " ON UNIT  53 AT TIME STEP 99, STRESS PERIOD   3
1
              HEAD IN LAYER   1 AT END OF TIME STEP  99 IN STRESS PERIOD    3
  ---------------------------------------------------------------------------

            1           2           3           4           5           6           7           8           9          10
 ........................................................................................................................
   1    9.994       9.437       8.822       8.100       7.231       6.184       4.934       3.472       1.817      1.8324E-02
   2    9.994       9.430       8.806       8.073       7.197       6.156       4.915       3.462       1.813      1.8278E-02
   3    9.994       9.416       8.773       8.014       7.115       6.095       4.879       3.443       1.805      1.8197E-02
   4    9.994       9.399       8.729       7.918       6.939       5.995       4.831       3.421       1.796      1.8110E-02
   5    9.994       9.390       8.697       7.808       6.507       5.881       4.796       3.409       1.792      1.8069E-02
   6    9.994       9.400       8.730       7.920       6.941       5.997       4.832       3.422       1.797      1.8115E-02
   7    9.994       9.417       8.776       8.018       7.120       6.099       4.882       3.445       1.806      1.8208E-02
   8    9.994       9.433       8.812       8.082       7.207       6.165       4.923       3.466       1.815      1.8302E-02
   9    9.995       9.444       8.835       8.117       7.250       6.202       4.948       3.481       1.822      1.8371E-02
  10    9.995       9.449       8.845       8.133       7.269       6.219       4.960       3.489       1.825      1.8406E-02

 HEAD WILL BE SAVED ON UNIT   51 AT END OF TIME STEP   99, STRESS PERIOD    3

 DRAWDOWN WILL BE SAVED ON UNIT   52 AT END OF TIME STEP   99, STRESS PERIOD    3
1
  VOLUMETRIC BUDGET FOR ENTIRE MODEL AT END OF TIME STEP   99, STRESS PERIOD   3
  ------------------------------------------------------------------------------

     CUMULATIVE VOLUMES      L**3       RATES FOR THIS TIME STEP      L**3/T
     ------------------                 ------------------------

           IN:                                      IN:
           ---                                      ---
             STORAGE =      404386.3125               STORAGE =         670.2754
       CONSTANT HEAD =           0.0000         CONSTANT HEAD =           0.0000
               WELLS =           0.0000                 WELLS =           0.0000
     HEAD DEP BOUNDS =       24398.0684       HEAD DEP BOUNDS =         341.6314

            TOTAL IN =      428784.3750              TOTAL IN =        1011.9067

          OUT:                                     OUT:
          ----                                     ----
             STORAGE =           0.0000               STORAGE =           0.0000
       CONSTANT HEAD =           0.0000         CONSTANT HEAD =           0.0000
               WELLS =        9900.0000                 WELLS =         100.0000
     HEAD DEP BOUNDS =      418884.5000       HEAD DEP BOUNDS =         911.9034

           TOTAL OUT =      428784.5000             TOTAL OUT =        1011.9034

            IN - OUT =          -0.1250              IN - OUT =       3.3569E-03

 PERCENT DISCREPANCY =          -0.00     PERCENT DISCREPANCY =           0.00






         TIME SUMMARY AT END OF TIME STEP   99 IN STRESS PERIOD    3
                    SECONDS     MINUTES      HOURS       DAYS        YEARS
                    -----------------------------------------------------------
   TIME STEP LENGTH  86400.      1440.0      24.000      1.0000     2.73785E-03
 STRESS PERIOD TIME 8.55360E+06 1.42560E+05  2376.0      99.000     0.27105    
         TOTAL TIME 1.72800E+07 2.88000E+05  4800.0      200.00     0.54757    
1
 
 SOLVING FOR HEAD 

 OUTPUT CONTROL FOR STRESS PERIOD    3   TIME STEP  100
    SAVE HEAD FOR ALL LAYERS
    SAVE DRAWDOWN FOR ALL LAYERS
    SAVE BUDGET
    PRINT HEAD FOR ALL LAYERS
    PRINT BUDGET
 UBDSV1 SAVING "         STORAGE" ON UNIT  53 AT TIME STEP100, STRESS PERIOD   3
 UBDSV2 SAVING "   CONSTANT HEAD" ON UNIT  53 AT TIME STEP100, STRESS PERIOD   3
 UBDSV1 SAVING "FLOW RIGHT FACE " ON UNIT  53 AT TIME STEP100, STRESS PERIOD   3
 UBDSV1 SAVING "FLOW FRONT FACE " ON UNIT  53 AT TIME STEP100, STRESS PERIOD   3
1
              HEAD IN LAYER   1 AT END OF TIME STEP 100 IN STRESS PERIOD    3
  ---------------------------------------------------------------------------

            1           2           3           4           5           6           7           8           9          10
 ........................................................................................................................
   1    9.994       9.434       8.815       8.090       7.220       6.172       4.923       3.464       1.813      1.8276E-02
   2    9.994       9.426       8.799       8.063       7.186       6.144       4.905       3.453       1.808      1.8229E-02
   3    9.994       9.412       8.766       8.005       7.104       6.083       4.868       3.434       1.800      1.8148E-02
   4    9.994       9.396       8.722       7.908       6.927       5.983       4.820       3.412       1.792      1.8061E-02
   5    9.994       9.386       8.690       7.798       6.495       5.869       4.785       3.400       1.788      1.8020E-02
   6    9.994       9.396       8.723       7.910       6.929       5.985       4.821       3.413       1.792      1.8066E-02
   7    9.994       9.414       8.769       8.009       7.109       6.087       4.872       3.437       1.801      1.8160E-02
   8    9.994       9.430       8.805       8.072       7.196       6.154       4.912       3.458       1.811      1.8255E-02
   9    9.994       9.440       8.828       8.108       7.240       6.191       4.938       3.473       1.817      1.8324E-02
  10    9.995       9.446       8.839       8.124       7.258       6.207       4.950       3.480       1.821      1.8359E-02

 HEAD WILL BE SAVED ON UNIT   51 AT END OF TIME STEP  100, STRESS PERIOD    3

 DRAWDOWN WILL BE SAVED ON UNIT   52 AT END OF TIME STEP  100, STRESS PERIOD    3
1
  VOLUMETRIC BUDGET FOR ENTIRE MODEL AT END OF TIME STEP  100, STRESS PERIOD   3
  ------------------------------------------------------------------------------

     CUMULATIVE VOLUMES      L**3       RATES FOR THIS TIME STEP      L**3/T
     ------------------                 ------------------------

           IN:                                      IN:
           ---                                      ---
             STORAGE =      405052.0938               STORAGE =         665.7717
       CONSTANT HEAD =           0.0000         CONSTANT HEAD =           0.0000
               WELLS =           0.0000                 WELLS =           0.0000
     HEAD DEP BOUNDS =       24741.7812       HEAD DEP BOUNDS =         343.7120

            TOTAL IN =      429793.8750              TOTAL IN =        1009.4836

          OUT:                                     OUT:
          ----                                     ----
             STORAGE =           0.0000               STORAGE =           0.0000
       CONSTANT HEAD =           0.0000         CONSTANT HEAD =           0.0000
               WELLS =       10000.0000                 WELLS =         100.0000
     HEAD DEP BOUNDS =      419794.0000       HEAD DEP BOUNDS =         909.4896

           TOTAL OUT =      429794.0000             TOTAL OUT =        1009.4896

            IN - OUT =          -0.1250              IN - OUT =      -5.9204E-03

 PERCENT DISCREPANCY =          -0.00     PERCENT DISCREPANCY =          -0.00






         TIME SUMMARY AT END OF TIME STEP  100 IN STRESS PERIOD    3
                    SECONDS     MINUTES      HOURS       DAYS        YEARS
                    -----------------------------------------------------------
   TIME STEP LENGTH  86400.      1440.0      24.000      1.0000     2.73785E-03
 STRESS PERIOD TIME 8.64000E+06 1.44000E+05  2400.0      100.00     0.27379    
         TOTAL TIME 1.73664E+07 2.89440E+05  4824.0      201.00     0.55031    
1

 Run end date and time (yyyy/mm/dd hh:mm:ss): 2020/02/06 18:27:08
 Elapsed run time:  0.079 Seconds

